version 2
run General-0-20200704-21:01:02-8928
attr configname General
attr datetime 20200704-21:01:02
attr experiment General
attr inifile omnetpp.ini
attr iterationvars ""
attr iterationvarsf ""
attr measurement ""
attr network Scenario
attr processid 8928
attr repetition 0
attr replication #0
attr resultdir results
attr runnumber 0
attr seedset 0
param Scenario.node[*].wlan[0].mgmtType "\"Ieee80211MgmtAP\""
param Scenario.node[*].wlan[0].bitrate 6Mbps
param Scenario.node[*].wlan[0].radio.transmitter.power 2mW
param Scenario.node[*].ac_wlan.interfaces "\"wlan0\""
param Scenario.node[*].ac_wlan.mcastGroups "\"224.0.0.1\""
param Scenario.node[*].mobilityType "\"VeinsInetMobility\""
param Scenario.node[*].mobility.constraintAreaMinX 0m
param Scenario.node[*].mobility.constraintAreaMinY 0m
param Scenario.node[*].mobility.constraintAreaMinZ 0m
param Scenario.node[*].mobility.constraintAreaMaxX 1000m
param Scenario.node[*].mobility.constraintAreaMaxY 1000m
param Scenario.node[*].mobility.constraintAreaMaxZ 0m
param Scenario.manager.updateInterval 0.1s
param Scenario.manager.host "\"localhost\""
param Scenario.manager.port 9999
param Scenario.manager.autoShutdown true
param Scenario.manager.launchConfig "xmldoc(\"square.launchd.xml\")"
param *.manager.moduleType "\"vtype0=org.car2x.veins.subprojects.veins_inet.example.Car pedestrian=org.car2x.veins.nodes.Pedestrian\""
param *.manager.moduleName "\"vtype0=node pedestrian=pedestrianNode\""
param *.manager.moduleDisplayString "\"vtype0='i=veins/node/car;is=vs' pedestrian='i=veins/node/pedestrian;is=vs'\""

vector 0 Scenario.node[0].wlan[0].radio radioMode:vector ETV
attr interpolationmode sample-hold
attr source radioModeChanged
attr title "Radio mode, vector"
vector 1 Scenario.node[0].wlan[0].radio radioChannel:vector ETV
attr interpolationmode sample-hold
attr source radioChannelChanged
attr title "Radio channel, vector"
vector 2 Scenario.node[0].wlan[0].radio receptionState:vector ETV
attr interpolationmode sample-hold
attr source receptionStateChanged
attr title "Radio reception state, vector"
vector 3 Scenario.node[0].wlan[0].mac.dcf.channelAccess.contention state:vector ETV
attr interpolationmode none
attr source stateChanged
attr title "contention state, vector"
vector 4 Scenario.node[0].wlan[0].mac.hcf.edca.edcaf[0].contention state:vector ETV
attr interpolationmode none
attr source stateChanged
attr title "contention state, vector"
vector 5 Scenario.node[0].wlan[0].mac.hcf.edca.edcaf[1].contention state:vector ETV
attr interpolationmode none
attr source stateChanged
attr title "contention state, vector"
vector 6 Scenario.node[0].wlan[0].mac.hcf.edca.edcaf[2].contention state:vector ETV
attr interpolationmode none
attr source stateChanged
attr title "contention state, vector"
vector 7 Scenario.node[0].wlan[0].mac.hcf.edca.edcaf[3].contention state:vector ETV
attr interpolationmode none
attr source stateChanged
attr title "contention state, vector"
vector 8 Scenario.node[0].wlan[0].mac rcvdPkFromHL:vector(packetBytes) ETV
attr interpolationmode none
attr source packetReceivedFromUpper
attr title "packets received from higher layer, vector(packetBytes)"
vector 9 Scenario.node[0].wlan[0].mac sentDownPk:vector(packetBytes) ETV
attr interpolationmode none
attr source packetSentToLower
attr title "packets sent to lower layer, vector(packetBytes)"
vector 10 Scenario.node[0].wlan[0].radio transmissionState:vector ETV
attr interpolationmode sample-hold
attr source transmissionStateChanged
attr title "Radio transmission state, vector"
vector 11 Scenario.node[1].wlan[0].radio radioMode:vector ETV
attr interpolationmode sample-hold
attr source radioModeChanged
attr title "Radio mode, vector"
vector 12 Scenario.node[1].wlan[0].radio radioChannel:vector ETV
attr interpolationmode sample-hold
attr source radioChannelChanged
attr title "Radio channel, vector"
vector 13 Scenario.node[1].wlan[0].radio receptionState:vector ETV
attr interpolationmode sample-hold
attr source receptionStateChanged
attr title "Radio reception state, vector"
vector 14 Scenario.node[1].wlan[0].mac.dcf.channelAccess.contention state:vector ETV
attr interpolationmode none
attr source stateChanged
attr title "contention state, vector"
vector 15 Scenario.node[1].wlan[0].mac.hcf.edca.edcaf[0].contention state:vector ETV
attr interpolationmode none
attr source stateChanged
attr title "contention state, vector"
vector 16 Scenario.node[1].wlan[0].mac.hcf.edca.edcaf[1].contention state:vector ETV
attr interpolationmode none
attr source stateChanged
attr title "contention state, vector"
vector 17 Scenario.node[1].wlan[0].mac.hcf.edca.edcaf[2].contention state:vector ETV
attr interpolationmode none
attr source stateChanged
attr title "contention state, vector"
vector 18 Scenario.node[1].wlan[0].mac.hcf.edca.edcaf[3].contention state:vector ETV
attr interpolationmode none
attr source stateChanged
attr title "contention state, vector"
vector 19 Scenario.node[1].wlan[0].mac rcvdPkFromLL:vector(packetBytes) ETV
attr interpolationmode none
attr source packetReceivedFromLower
attr title "packets received from lower layer, vector(packetBytes)"
vector 20 Scenario.node[1].wlan[0].mac passedUpPk:vector(packetBytes) ETV
attr interpolationmode none
attr source packetSentToUpper
attr title "packets passed to higher layer, vector(packetBytes)"
vector 21 Scenario.node[1].wlan[0].mac rcvdPkFromHL:vector(packetBytes) ETV
attr interpolationmode none
attr source packetReceivedFromUpper
attr title "packets received from higher layer, vector(packetBytes)"
vector 22 Scenario.node[1].wlan[0].mac sentDownPk:vector(packetBytes) ETV
attr interpolationmode none
attr source packetSentToLower
attr title "packets sent to lower layer, vector(packetBytes)"
vector 23 Scenario.node[1].wlan[0].radio transmissionState:vector ETV
attr interpolationmode sample-hold
attr source transmissionStateChanged
attr title "Radio transmission state, vector"
vector 24 Scenario.node[0].wlan[0].mac rcvdPkFromLL:vector(packetBytes) ETV
attr interpolationmode none
attr source packetReceivedFromLower
attr title "packets received from lower layer, vector(packetBytes)"
vector 25 Scenario.node[0].wlan[0].mac passedUpPk:vector(packetBytes) ETV
attr interpolationmode none
attr source packetSentToUpper
attr title "packets passed to higher layer, vector(packetBytes)"
vector 26 Scenario.node[2].wlan[0].radio radioMode:vector ETV
attr interpolationmode sample-hold
attr source radioModeChanged
attr title "Radio mode, vector"
vector 27 Scenario.node[2].wlan[0].radio radioChannel:vector ETV
attr interpolationmode sample-hold
attr source radioChannelChanged
attr title "Radio channel, vector"
vector 28 Scenario.node[2].wlan[0].radio receptionState:vector ETV
attr interpolationmode sample-hold
attr source receptionStateChanged
attr title "Radio reception state, vector"
vector 29 Scenario.node[2].wlan[0].mac.dcf.channelAccess.contention state:vector ETV
attr interpolationmode none
attr source stateChanged
attr title "contention state, vector"
vector 30 Scenario.node[2].wlan[0].mac.hcf.edca.edcaf[0].contention state:vector ETV
attr interpolationmode none
attr source stateChanged
attr title "contention state, vector"
vector 31 Scenario.node[2].wlan[0].mac.hcf.edca.edcaf[1].contention state:vector ETV
attr interpolationmode none
attr source stateChanged
attr title "contention state, vector"
vector 32 Scenario.node[2].wlan[0].mac.hcf.edca.edcaf[2].contention state:vector ETV
attr interpolationmode none
attr source stateChanged
attr title "contention state, vector"
vector 33 Scenario.node[2].wlan[0].mac.hcf.edca.edcaf[3].contention state:vector ETV
attr interpolationmode none
attr source stateChanged
attr title "contention state, vector"
vector 34 Scenario.node[2].wlan[0].mac rcvdPkFromHL:vector(packetBytes) ETV
attr interpolationmode none
attr source packetReceivedFromUpper
attr title "packets received from higher layer, vector(packetBytes)"
vector 35 Scenario.node[2].wlan[0].mac sentDownPk:vector(packetBytes) ETV
attr interpolationmode none
attr source packetSentToLower
attr title "packets sent to lower layer, vector(packetBytes)"
vector 36 Scenario.node[2].wlan[0].radio transmissionState:vector ETV
attr interpolationmode sample-hold
attr source transmissionStateChanged
attr title "Radio transmission state, vector"
vector 37 Scenario.node[2].wlan[0].mac rcvdPkFromLL:vector(packetBytes) ETV
attr interpolationmode none
attr source packetReceivedFromLower
attr title "packets received from lower layer, vector(packetBytes)"
vector 38 Scenario.node[2].wlan[0].mac passedUpPk:vector(packetBytes) ETV
attr interpolationmode none
attr source packetSentToUpper
attr title "packets passed to higher layer, vector(packetBytes)"
0	2	0.1	0
0	2	0.1	2
0	10	0.15488135023	3
0	13	0.15492735023	2
0	21	0.25488135023	3
0	24	0.25492735023	2
0	32	0.35488135023	3
0	35	0.35492735023	2
0	43	0.45488135023	3
0	46	0.45492735023	2
0	54	0.55488135023	3
0	57	0.55492735023	2
0	65	0.65488135023	3
0	68	0.65492735023	2
0	76	0.75488135023	3
0	79	0.75492735023	2
0	87	0.85488135023	3
0	90	0.85492735023	2
0	98	0.95488135023	3
0	101	0.95492735023	2
0	109	1.05488135023	3
0	112	1.05492735023	2
0	120	1.15488135023	3
0	123	1.15492735023	2
0	131	1.25488135023	3
0	134	1.25492735023	2
0	142	1.35488135023	3
0	145	1.35492735023	2
0	153	1.45488135023	3
0	156	1.45492735023	2
0	164	1.55488135023	3
0	167	1.55492735023	2
0	175	1.65488135023	3
0	178	1.65492735023	2
0	186	1.75488135023	3
0	189	1.75492735023	2
0	197	1.85488135023	3
0	200	1.85492735023	2
0	208	1.95488135023	3
0	211	1.95492735023	2
0	219	2.05488135023	3
0	222	2.05492735023	2
0	230	2.15488135023	3
0	233	2.15492735023	2
0	241	2.25488135023	3
0	244	2.25492735023	2
0	252	2.35488135023	3
0	255	2.35492735023	2
0	263	2.45488135023	3
0	266	2.45492735023	2
0	274	2.55488135023	3
0	277	2.55492735023	2
0	285	2.65488135023	3
0	288	2.65492735023	2
0	296	2.75488135023	3
0	299	2.75492735023	2
0	307	2.85488135023	3
0	310	2.85492735023	2
0	318	2.95488135023	3
0	321	2.95492735023	2
0	329	3.05488135023	3
0	332	3.05492735023	2
0	340	3.15488135023	3
0	343	3.15492735023	2
0	351	3.25488135023	3
0	354	3.25492735023	2
0	362	3.35488135023	3
0	365	3.35492735023	2
0	373	3.45488135023	3
0	376	3.45492735023	2
0	384	3.55488135023	3
0	387	3.55492735023	2
0	395	3.65488135023	3
0	398	3.65492735023	2
0	406	3.75488135023	3
0	409	3.75492735023	2
0	417	3.85488135023	3
0	420	3.85492735023	2
0	428	3.95488135023	3
0	431	3.95492735023	2
0	439	4.05488135023	3
0	442	4.05492735023	2
0	450	4.15488135023	3
0	453	4.15492735023	2
0	461	4.25488135023	3
0	464	4.25492735023	2
0	472	4.35488135023	3
0	475	4.35492735023	2
0	483	4.45488135023	3
0	486	4.45492735023	2
0	494	4.55488135023	3
0	497	4.55492735023	2
0	505	4.65488135023	3
0	508	4.65492735023	2
0	516	4.75488135023	3
0	519	4.75492735023	2
0	527	4.85488135023	3
0	530	4.85492735023	2
0	538	4.95488135023	3
0	541	4.95492735023	2
0	549	5.05488135023	3
0	552	5.05492735023	2
0	562	5.15488135023	3
0	566	5.15492735023	2
0	591	5.25488135023	3
0	595	5.25492735023	2
0	620	5.35488135023	3
0	624	5.35492735023	2
0	649	5.45488135023	3
0	653	5.45492735023	2
0	678	5.55488135023	3
0	682	5.55492735023	2
0	707	5.65488135023	3
0	711	5.65492735023	2
0	736	5.75488135023	3
0	740	5.75492735023	2
0	765	5.85488135023	3
0	769	5.85492735023	2
0	794	5.95488135023	3
0	798	5.95492735023	2
0	823	6.05488135023	3
0	827	6.05492735023	2
0	852	6.15488135023	3
0	856	6.15492735023	2
0	881	6.25488135023	3
0	885	6.25492735023	2
0	910	6.35488135023	3
0	914	6.35492735023	2
0	939	6.45488135023	3
0	943	6.45492735023	2
0	968	6.55488135023	3
0	972	6.55492735023	2
0	997	6.65488135023	3
0	1001	6.65492735023	2
0	1026	6.75488135023	3
0	1030	6.75492735023	2
0	1055	6.85488135023	3
0	1059	6.85492735023	2
0	1084	6.95488135023	3
0	1088	6.95492735023	2
0	1113	7.05488135023	3
0	1117	7.05492735023	2
0	1142	7.15488135023	3
0	1146	7.15492735023	2
0	1171	7.25488135023	3
0	1175	7.25492735023	2
0	1200	7.35488135023	3
0	1204	7.35492735023	2
0	1229	7.45488135023	3
0	1233	7.45492735023	2
0	1258	7.55488135023	3
0	1262	7.55492735023	2
0	1287	7.65488135023	3
0	1291	7.65492735023	2
0	1316	7.75488135023	3
0	1320	7.75492735023	2
0	1345	7.85488135023	3
0	1349	7.85492735023	2
0	1374	7.95488135023	3
0	1378	7.95492735023	2
0	1403	8.05488135023	3
0	1407	8.05492735023	2
0	1432	8.15488135023	3
0	1436	8.15492735023	2
0	1461	8.25488135023	3
0	1465	8.25492735023	2
0	1490	8.35488135023	3
0	1494	8.35492735023	2
0	1519	8.45488135023	3
0	1523	8.45492735023	2
0	1548	8.55488135023	3
0	1552	8.55492735023	2
0	1577	8.65488135023	3
0	1581	8.65492735023	2
0	1606	8.75488135023	3
0	1610	8.75492735023	2
0	1635	8.85488135023	3
0	1639	8.85492735023	2
0	1664	8.95488135023	3
0	1668	8.95492735023	2
0	1693	9.05488135023	3
0	1697	9.05492735023	2
0	1722	9.15488135023	3
0	1726	9.15492735023	2
0	1751	9.25488135023	3
0	1755	9.25492735023	2
0	1780	9.35488135023	3
0	1784	9.35492735023	2
0	1809	9.45488135023	3
0	1813	9.45492735023	2
0	1838	9.55488135023	3
0	1842	9.55492735023	2
0	1867	9.65488135023	3
0	1871	9.65492735023	2
0	1896	9.75488135023	3
0	1900	9.75492735023	2
0	1925	9.85488135023	3
0	1929	9.85492735023	2
0	1954	9.95488135023	3
0	1958	9.95492735023	2
0	1983	10.05488135023	3
0	1987	10.05492735023	2
0	2032	10.15488135023	3
0	2037	10.15492735023	2
0	2087	10.25488135023	3
0	2092	10.25492735023	2
0	2142	10.35488135023	3
0	2147	10.35492735023	2
0	2197	10.45488135023	3
0	2202	10.45492735023	2
0	2252	10.55488135023	3
0	2257	10.55492735023	2
0	2307	10.65488135023	3
0	2312	10.65492735023	2
0	2362	10.75488135023	3
0	2367	10.75492735023	2
0	2417	10.85488135023	3
0	2422	10.85492735023	2
0	2472	10.95488135023	3
0	2477	10.95492735023	2
0	2527	11.05488135023	3
0	2532	11.05492735023	2
0	2582	11.15488135023	3
0	2587	11.15492735023	2
0	2637	11.25488135023	3
0	2642	11.25492735023	2
0	2692	11.35488135023	3
0	2697	11.35492735023	2
0	2747	11.45488135023	3
0	2752	11.45492735023	2
0	2802	11.55488135023	3
0	2807	11.55492735023	2
0	2857	11.65488135023	3
0	2862	11.65492735023	2
0	2912	11.75488135023	3
0	2917	11.75492735023	2
0	2967	11.85488135023	3
0	2972	11.85492735023	2
0	3022	11.95488135023	3
0	3027	11.95492735023	2
0	3077	12.05488135023	3
0	3082	12.05492735023	2
0	3132	12.15488135023	3
0	3137	12.15492735023	2
0	3187	12.25488135023	3
0	3192	12.25492735023	2
0	3242	12.35488135023	3
0	3247	12.35492735023	2
0	3297	12.45488135023	3
0	3302	12.45492735023	2
0	3352	12.55488135023	3
0	3357	12.55492735023	2
0	3407	12.65488135023	3
0	3412	12.65492735023	2
0	3462	12.75488135023	3
0	3467	12.75492735023	2
0	3517	12.85488135023	3
0	3522	12.85492735023	2
0	3572	12.95488135023	3
0	3577	12.95492735023	2
0	3627	13.05488135023	3
0	3632	13.05492735023	2
0	3682	13.15488135023	3
0	3687	13.15492735023	2
0	3737	13.25488135023	3
0	3742	13.25492735023	2
0	3792	13.35488135023	3
0	3797	13.35492735023	2
0	3847	13.45488135023	3
0	3852	13.45492735023	2
0	3902	13.55488135023	3
0	3907	13.55492735023	2
0	3957	13.65488135023	3
0	3962	13.65492735023	2
0	4012	13.75488135023	3
0	4017	13.75492735023	2
0	4067	13.85488135023	3
0	4072	13.85492735023	2
0	4122	13.95488135023	3
0	4127	13.95492735023	2
0	4177	14.05488135023	3
0	4182	14.05492735023	2
0	4232	14.15488135023	3
0	4237	14.15492735023	2
0	4287	14.25488135023	3
0	4292	14.25492735023	2
0	4342	14.35488135023	3
0	4347	14.35492735023	2
0	4397	14.45488135023	3
0	4402	14.45492735023	2
0	4452	14.55488135023	3
0	4457	14.55492735023	2
0	4507	14.65488135023	3
0	4512	14.65492735023	2
0	4562	14.75488135023	3
0	4567	14.75492735023	2
0	4617	14.85488135023	3
0	4622	14.85492735023	2
0	4672	14.95488135023	3
0	4677	14.95492735023	2
0	4727	15.05488135023	3
0	4732	15.05492735023	2
0	4782	15.15488135023	3
0	4787	15.15492735023	2
0	4837	15.25488135023	3
0	4842	15.25492735023	2
0	4892	15.35488135023	3
0	4897	15.35492735023	2
0	4947	15.45488135023	3
0	4952	15.45492735023	2
0	5002	15.55488135023	3
0	5007	15.55492735023	2
0	5057	15.65488135023	3
0	5062	15.65492735023	2
0	5112	15.75488135023	3
0	5117	15.75492735023	2
0	5167	15.85488135023	3
0	5172	15.85492735023	2
0	5222	15.95488135023	3
0	5227	15.95492735023	2
0	5277	16.05488135023	3
0	5282	16.05492735023	2
0	5332	16.15488135023	3
0	5337	16.15492735023	2
0	5387	16.25488135023	3
0	5392	16.25492735023	2
0	5442	16.35488135023	3
0	5447	16.35492735023	2
0	5497	16.45488135023	3
0	5502	16.45492735023	2
0	5552	16.55488135023	3
0	5557	16.55492735023	2
0	5607	16.65488135023	3
0	5612	16.65492735023	2
0	5662	16.75488135023	3
0	5667	16.75492735023	2
0	5717	16.85488135023	3
0	5722	16.85492735023	2
0	5772	16.95488135023	3
0	5777	16.95492735023	2
0	5827	17.05488135023	3
0	5832	17.05492735023	2
0	5882	17.15488135023	3
0	5887	17.15492735023	2
0	5937	17.25488135023	3
0	5942	17.25492735023	2
0	5992	17.35488135023	3
0	5997	17.35492735023	2
0	6047	17.45488135023	3
0	6052	17.45492735023	2
0	6102	17.55488135023	3
0	6107	17.55492735023	2
0	6157	17.65488135023	3
0	6162	17.65492735023	2
0	6212	17.75488135023	3
0	6217	17.75492735023	2
0	6267	17.85488135023	3
0	6272	17.85492735023	2
0	6322	17.95488135023	3
0	6327	17.95492735023	2
0	6377	18.05488135023	3
0	6382	18.05492735023	2
0	6432	18.15488135023	3
0	6437	18.15492735023	2
0	6487	18.25488135023	3
0	6492	18.25492735023	2
0	6542	18.35488135023	3
0	6547	18.35492735023	2
0	6597	18.45488135023	3
0	6602	18.45492735023	2
0	6652	18.55488135023	3
0	6657	18.55492735023	2
0	6707	18.65488135023	3
0	6712	18.65492735023	2
0	6762	18.75488135023	3
0	6767	18.75492735023	2
0	6817	18.85488135023	3
0	6822	18.85492735023	2
0	6872	18.95488135023	3
0	6877	18.95492735023	2
0	6927	19.05488135023	3
0	6932	19.05492735023	2
0	6982	19.15488135023	3
0	6987	19.15492735023	2
0	7037	19.25488135023	3
0	7042	19.25492735023	2
0	7092	19.35488135023	3
0	7097	19.35492735023	2
0	7147	19.45488135023	3
0	7152	19.45492735023	2
0	7202	19.55488135023	3
0	7207	19.55492735023	2
0	7257	19.65488135023	3
0	7262	19.65492735023	2
0	7312	19.75488135023	3
0	7317	19.75492735023	2
0	7367	19.85488135023	3
0	7372	19.85492735023	2
0	7422	19.95488135023	3
0	7427	19.95492735023	2
0	7477	20.05488135023	3
0	7482	20.05492735023	2
0	7532	20.15488135023	3
0	7537	20.15492735023	2
0	7587	20.25488135023	3
0	7592	20.25492735023	2
0	7642	20.35488135023	3
0	7647	20.35492735023	2
0	7697	20.45488135023	3
0	7702	20.45492735023	2
0	7752	20.55488135023	3
0	7757	20.55492735023	2
0	7807	20.65488135023	3
0	7812	20.65492735023	2
0	7862	20.75488135023	3
0	7867	20.75492735023	2
0	7917	20.85488135023	3
0	7922	20.85492735023	2
0	7972	20.95488135023	3
0	7977	20.95492735023	2
0	8027	21.05488135023	3
0	8032	21.05492735023	2
0	8082	21.15488135023	3
1	2	0.1	0
2	2	0.1	1
2	10	0.15488135023	0
2	13	0.15492735023	1
2	21	0.25488135023	0
2	24	0.25492735023	1
2	32	0.35488135023	0
2	35	0.35492735023	1
2	43	0.45488135023	0
2	46	0.45492735023	1
2	54	0.55488135023	0
2	57	0.55492735023	1
2	65	0.65488135023	0
2	68	0.65492735023	1
2	76	0.75488135023	0
2	79	0.75492735023	1
2	87	0.85488135023	0
2	90	0.85492735023	1
2	98	0.95488135023	0
2	101	0.95492735023	1
2	109	1.05488135023	0
2	112	1.05492735023	1
2	120	1.15488135023	0
2	123	1.15492735023	1
2	131	1.25488135023	0
2	134	1.25492735023	1
2	142	1.35488135023	0
2	145	1.35492735023	1
2	153	1.45488135023	0
2	156	1.45492735023	1
2	164	1.55488135023	0
2	167	1.55492735023	1
2	175	1.65488135023	0
2	178	1.65492735023	1
2	186	1.75488135023	0
2	189	1.75492735023	1
2	197	1.85488135023	0
2	200	1.85492735023	1
2	208	1.95488135023	0
2	211	1.95492735023	1
2	219	2.05488135023	0
2	222	2.05492735023	1
2	230	2.15488135023	0
2	233	2.15492735023	1
2	241	2.25488135023	0
2	244	2.25492735023	1
2	252	2.35488135023	0
2	255	2.35492735023	1
2	263	2.45488135023	0
2	266	2.45492735023	1
2	274	2.55488135023	0
2	277	2.55492735023	1
2	285	2.65488135023	0
2	288	2.65492735023	1
2	296	2.75488135023	0
2	299	2.75492735023	1
2	307	2.85488135023	0
2	310	2.85492735023	1
2	318	2.95488135023	0
2	321	2.95492735023	1
2	329	3.05488135023	0
2	332	3.05492735023	1
2	340	3.15488135023	0
2	343	3.15492735023	1
2	351	3.25488135023	0
2	354	3.25492735023	1
2	362	3.35488135023	0
2	365	3.35492735023	1
2	373	3.45488135023	0
2	376	3.45492735023	1
2	384	3.55488135023	0
2	387	3.55492735023	1
2	395	3.65488135023	0
2	398	3.65492735023	1
2	406	3.75488135023	0
2	409	3.75492735023	1
2	417	3.85488135023	0
2	420	3.85492735023	1
2	428	3.95488135023	0
2	431	3.95492735023	1
2	439	4.05488135023	0
2	442	4.05492735023	1
2	450	4.15488135023	0
2	453	4.15492735023	1
2	461	4.25488135023	0
2	464	4.25492735023	1
2	472	4.35488135023	0
2	475	4.35492735023	1
2	483	4.45488135023	0
2	486	4.45492735023	1
2	494	4.55488135023	0
2	497	4.55492735023	1
2	505	4.65488135023	0
2	508	4.65492735023	1
2	516	4.75488135023	0
2	519	4.75492735023	1
2	527	4.85488135023	0
2	530	4.85492735023	1
2	538	4.95488135023	0
2	541	4.95492735023	1
2	549	5.05488135023	0
2	552	5.05492735023	1
2	562	5.15488135023	0
2	566	5.15492735023	1
2	577	5.15820206443	3
2	580	5.15824806443	1
2	591	5.25488135023	0
2	595	5.25492735023	1
2	606	5.258202067627	3
2	609	5.258248067627	1
2	620	5.35488135023	0
2	624	5.35492735023	1
2	635	5.358202070823	3
2	638	5.358248070823	1
2	649	5.45488135023	0
2	653	5.45492735023	1
2	664	5.458202073987	3
2	667	5.458248073987	1
2	678	5.55488135023	0
2	682	5.55492735023	1
2	693	5.558202077131	3
2	696	5.558248077131	1
2	707	5.65488135023	0
2	711	5.65492735023	1
2	722	5.658202080266	3
2	725	5.658248080266	1
2	736	5.75488135023	0
2	740	5.75492735023	1
2	751	5.758202083394	3
2	754	5.758248083394	1
2	765	5.85488135023	0
2	769	5.85492735023	1
2	780	5.85820208651	3
2	783	5.85824808651	1
2	794	5.95488135023	0
2	798	5.95492735023	1
2	809	5.958202089613	3
2	812	5.958248089613	1
2	823	6.05488135023	0
2	827	6.05492735023	1
2	838	6.058202092697	3
2	841	6.058248092697	1
2	852	6.15488135023	0
2	856	6.15492735023	1
2	867	6.158202095792	3
2	870	6.158248095792	1
2	881	6.25488135023	0
2	885	6.25492735023	1
2	896	6.258202098867	3
2	899	6.258248098867	1
2	910	6.35488135023	0
2	914	6.35492735023	1
2	925	6.358202101926	3
2	928	6.358248101926	1
2	939	6.45488135023	0
2	943	6.45492735023	1
2	954	6.458202104974	3
2	957	6.458248104974	1
2	968	6.55488135023	0
2	972	6.55492735023	1
2	983	6.55820210802	3
2	986	6.55824810802	1
2	997	6.65488135023	0
2	1001	6.65492735023	1
2	1012	6.658202111057	3
2	1015	6.658248111057	1
2	1026	6.75488135023	0
2	1030	6.75492735023	1
2	1041	6.758202114104	3
2	1044	6.758248114104	1
2	1055	6.85488135023	0
2	1059	6.85492735023	1
2	1070	6.858202117172	3
2	1073	6.858248117172	1
2	1084	6.95488135023	0
2	1088	6.95492735023	1
2	1099	6.958202120214	3
2	1102	6.958248120214	1
2	1113	7.05488135023	0
2	1117	7.05492735023	1
2	1128	7.058202123295	3
2	1131	7.058248123295	1
2	1142	7.15488135023	0
2	1146	7.15492735023	1
2	1157	7.158202126375	3
2	1160	7.158248126375	1
2	1171	7.25488135023	0
2	1175	7.25492735023	1
2	1186	7.258202129434	3
2	1189	7.258248129434	1
2	1200	7.35488135023	0
2	1204	7.35492735023	1
2	1215	7.358202132487	3
2	1218	7.358248132487	1
2	1229	7.45488135023	0
2	1233	7.45492735023	1
2	1244	7.45820213549	3
2	1247	7.45824813549	1
2	1258	7.55488135023	0
2	1262	7.55492735023	1
2	1273	7.558202138424	3
2	1276	7.558248138424	1
2	1287	7.65488135023	0
2	1291	7.65492735023	1
2	1302	7.658202141283	3
2	1305	7.658248141283	1
2	1316	7.75488135023	0
2	1320	7.75492735023	1
2	1331	7.758202144049	3
2	1334	7.758248144049	1
2	1345	7.85488135023	0
2	1349	7.85492735023	1
2	1360	7.85820214676	3
2	1363	7.85824814676	1
2	1374	7.95488135023	0
2	1378	7.95492735023	1
2	1389	7.958202149403	3
2	1392	7.958248149403	1
2	1403	8.05488135023	0
2	1407	8.05492735023	1
2	1418	8.058202152026	3
2	1421	8.058248152026	1
2	1432	8.15488135023	0
2	1436	8.15492735023	1
2	1447	8.158202154585	3
2	1450	8.158248154585	1
2	1461	8.25488135023	0
2	1465	8.25492735023	1
2	1476	8.258202157102	3
2	1479	8.258248157102	1
2	1490	8.35488135023	0
2	1494	8.35492735023	1
2	1505	8.358202159537	3
2	1508	8.358248159537	1
2	1519	8.45488135023	0
2	1523	8.45492735023	1
2	1534	8.45820216192	3
2	1537	8.45824816192	1
2	1548	8.55488135023	0
2	1552	8.55492735023	1
2	1563	8.558202164228	3
2	1566	8.558248164228	1
2	1577	8.65488135023	0
2	1581	8.65492735023	1
2	1592	8.658202166486	3
2	1595	8.658248166486	1
2	1606	8.75488135023	0
2	1610	8.75492735023	1
2	1621	8.758202168675	3
2	1624	8.758248168675	1
2	1635	8.85488135023	0
2	1639	8.85492735023	1
2	1650	8.858202170809	3
2	1653	8.858248170809	1
2	1664	8.95488135023	0
2	1668	8.95492735023	1
2	1679	8.958202172847	3
2	1682	8.958248172847	1
2	1693	9.05488135023	0
2	1697	9.05492735023	1
2	1708	9.058202174854	3
2	1711	9.058248174854	1
2	1722	9.15488135023	0
2	1726	9.15492735023	1
2	1737	9.158202176813	3
2	1740	9.158248176813	1
2	1751	9.25488135023	0
2	1755	9.25492735023	1
2	1766	9.258202178706	3
2	1769	9.258248178706	1
2	1780	9.35488135023	0
2	1784	9.35492735023	1
2	1795	9.358202180494	3
2	1798	9.358248180494	1
2	1809	9.45488135023	0
2	1813	9.45492735023	1
2	1824	9.458202182253	3
2	1827	9.458248182253	1
2	1838	9.55488135023	0
2	1842	9.55492735023	1
2	1853	9.558202183922	3
2	1856	9.558248183922	1
2	1867	9.65488135023	0
2	1871	9.65492735023	1
2	1882	9.65820218558	3
2	1885	9.65824818558	1
2	1896	9.75488135023	0
2	1900	9.75492735023	1
2	1911	9.758202187475	3
2	1914	9.758248187475	1
2	1925	9.85488135023	0
2	1929	9.85492735023	1
2	1940	9.858202189723	3
2	1943	9.858248189723	1
2	1954	9.95488135023	0
2	1958	9.95492735023	1
2	1969	9.958202191865	3
2	1972	9.958248191865	1
2	1983	10.05488135023	0
2	1987	10.05492735023	1
2	1998	10.058202193756	3
2	2001	10.058248193756	1
2	2017	10.128280999982	3
2	2023	10.128326999982	1
2	2032	10.15488135023	0
2	2037	10.15492735023	1
2	2052	10.158202195103	3
2	2058	10.158248195103	1
2	2072	10.228281004607	3
2	2078	10.228327004607	1
2	2087	10.25488135023	0
2	2092	10.25492735023	1
2	2107	10.258202196449	3
2	2113	10.258248196449	1
2	2127	10.328281007875	3
2	2133	10.328327007875	1
2	2142	10.35488135023	0
2	2147	10.35492735023	1
2	2162	10.358202196473	3
2	2168	10.358248196473	1
2	2182	10.428281010609	3
2	2188	10.428327010609	1
2	2197	10.45488135023	0
2	2202	10.45492735023	1
2	2217	10.458202196025	3
2	2223	10.458248196025	1
2	2237	10.528281013119	3
2	2243	10.528327013119	1
2	2252	10.55488135023	0
2	2257	10.55492735023	1
2	2272	10.558202195391	3
2	2278	10.558248195391	1
2	2292	10.628281013887	3
2	2298	10.628327013887	1
2	2307	10.65488135023	0
2	2312	10.65492735023	1
2	2327	10.65820219313	3
2	2333	10.65824819313	1
2	2347	10.728281014674	3
2	2353	10.728327014674	1
2	2362	10.75488135023	0
2	2367	10.75492735023	1
2	2382	10.758202190965	3
2	2388	10.758248190965	1
2	2402	10.828281015465	3
2	2408	10.828327015465	1
2	2417	10.85488135023	0
2	2422	10.85492735023	1
2	2437	10.858202188902	3
2	2443	10.858248188902	1
2	2457	10.928281015467	3
2	2463	10.928327015467	1
2	2472	10.95488135023	0
2	2477	10.95492735023	1
2	2492	10.958202186075	3
2	2498	10.958248186075	1
2	2512	11.028281015441	3
2	2518	11.028327015441	1
2	2527	11.05488135023	0
2	2532	11.05492735023	1
2	2547	11.058202183309	3
2	2553	11.058248183309	1
2	2567	11.128281015409	3
2	2573	11.128327015409	1
2	2582	11.15488135023	0
2	2587	11.15492735023	1
2	2602	11.158202180642	3
2	2608	11.158248180642	1
2	2622	11.228281015387	3
2	2628	11.228327015387	1
2	2637	11.25488135023	0
2	2642	11.25492735023	1
2	2657	11.258202178038	3
2	2663	11.258248178038	1
2	2677	11.328281015372	3
2	2683	11.328327015372	1
2	2692	11.35488135023	0
2	2697	11.35492735023	1
2	2712	11.358202175507	3
2	2718	11.358248175507	1
2	2732	11.428281015354	3
2	2738	11.428327015354	1
2	2747	11.45488135023	0
2	2752	11.45492735023	1
2	2767	11.458202173093	3
2	2773	11.458248173093	1
2	2787	11.528281015342	3
2	2793	11.528327015342	1
2	2802	11.55488135023	0
2	2807	11.55492735023	1
2	2822	11.558202170782	3
2	2828	11.558248170782	1
2	2842	11.628281015314	3
2	2848	11.628327015314	1
2	2857	11.65488135023	0
2	2862	11.65492735023	1
2	2877	11.658202168587	3
2	2883	11.658248168587	1
2	2897	11.728281015292	3
2	2903	11.728327015292	1
2	2912	11.75488135023	0
2	2917	11.75492735023	1
2	2932	11.758202166539	3
2	2938	11.758248166539	1
2	2952	11.828281015288	3
2	2958	11.828327015288	1
2	2967	11.85488135023	0
2	2972	11.85492735023	1
2	2987	11.858202164617	3
2	2993	11.858248164617	1
2	3007	11.928281015295	3
2	3013	11.928327015295	1
2	3022	11.95488135023	0
2	3027	11.95492735023	1
2	3042	11.958202162821	3
2	3048	11.958248162821	1
2	3062	12.028281015329	3
2	3068	12.028327015329	1
2	3077	12.05488135023	0
2	3082	12.05492735023	1
2	3097	12.058202161167	3
2	3103	12.058248161167	1
2	3117	12.128281015388	3
2	3123	12.128327015388	1
2	3132	12.15488135023	0
2	3137	12.15492735023	1
2	3152	12.158202159686	3
2	3158	12.158248159686	1
2	3172	12.22828101546	3
2	3178	12.22832701546	1
2	3187	12.25488135023	0
2	3192	12.25492735023	1
2	3207	12.258202158432	3
2	3213	12.258248158432	1
2	3227	12.328281015544	3
2	3233	12.328327015544	1
2	3242	12.35488135023	0
2	3247	12.35492735023	1
2	3262	12.358202157407	3
2	3268	12.358248157407	1
2	3282	12.42828101567	3
2	3288	12.42832701567	1
2	3297	12.45488135023	0
2	3302	12.45492735023	1
2	3317	12.458202156643	3
2	3323	12.458248156643	1
2	3337	12.5282810158	3
2	3343	12.5283270158	1
2	3352	12.55488135023	0
2	3357	12.55492735023	1
2	3372	12.55820215609	3
2	3378	12.55824815609	1
2	3392	12.62828101595	3
2	3398	12.62832701595	1
2	3407	12.65488135023	0
2	3412	12.65492735023	1
2	3427	12.658202155787	3
2	3433	12.658248155787	1
2	3447	12.728281016138	3
2	3453	12.728327016138	1
2	3462	12.75488135023	0
2	3467	12.75492735023	1
2	3482	12.758202155726	3
2	3488	12.758248155726	1
2	3502	12.828281016326	3
2	3508	12.828327016326	1
2	3517	12.85488135023	0
2	3522	12.85492735023	1
2	3537	12.858202155887	3
2	3543	12.858248155887	1
2	3557	12.928281016524	3
2	3563	12.928327016524	1
2	3572	12.95488135023	0
2	3577	12.95492735023	1
2	3592	12.958202156307	3
2	3598	12.958248156307	1
2	3612	13.028281016757	3
2	3618	13.028327016757	1
2	3627	13.05488135023	0
2	3632	13.05492735023	1
2	3646	13.058202156952	3
2	3650	13.058248156952	1
2	3667	13.128281017006	3
2	3673	13.128327017006	1
2	3682	13.15488135023	0
2	3687	13.15492735023	1
2	3701	13.158202157829	3
2	3705	13.158248157829	1
2	3722	13.22828101728	3
2	3728	13.22832701728	1
2	3737	13.25488135023	0
2	3742	13.25492735023	1
2	3756	13.258202158946	3
2	3760	13.258248158946	1
2	3777	13.328281017569	3
2	3783	13.328327017569	1
2	3792	13.35488135023	0
2	3797	13.35492735023	1
2	3811	13.358202160303	3
2	3815	13.358248160303	1
2	3832	13.428281017876	3
2	3838	13.428327017876	1
2	3847	13.45488135023	0
2	3852	13.45492735023	1
2	3866	13.458202161867	3
2	3870	13.458248161867	1
2	3887	13.528281018208	3
2	3893	13.528327018208	1
2	3902	13.55488135023	0
2	3907	13.55492735023	1
2	3921	13.558202163654	3
2	3925	13.558248163654	1
2	3942	13.628281018571	3
2	3948	13.628327018571	1
2	3957	13.65488135023	0
2	3962	13.65492735023	1
2	3976	13.658202165672	3
2	3980	13.658248165672	1
2	3997	13.728281018939	3
2	4003	13.728327018939	1
2	4012	13.75488135023	0
2	4017	13.75492735023	1
2	4031	13.758202167871	3
2	4035	13.758248167871	1
2	4052	13.828281019349	3
2	4058	13.828327019349	1
2	4067	13.85488135023	0
2	4072	13.85492735023	1
2	4086	13.85820217028	3
2	4090	13.85824817028	1
2	4107	13.928281019793	3
2	4113	13.928327019793	1
2	4122	13.95488135023	0
2	4127	13.95492735023	1
2	4141	13.958202172861	3
2	4145	13.958248172861	1
2	4162	14.028281020275	3
2	4168	14.028327020275	1
2	4177	14.05488135023	0
2	4182	14.05492735023	1
2	4196	14.058202175646	3
2	4200	14.058248175646	1
2	4217	14.128281020787	3
2	4223	14.128327020787	1
2	4232	14.15488135023	0
2	4237	14.15492735023	1
2	4251	14.158202178614	3
2	4255	14.158248178614	1
2	4272	14.228281021324	3
2	4278	14.228327021324	1
2	4287	14.25488135023	0
2	4292	14.25492735023	1
2	4306	14.258202181729	3
2	4310	14.258248181729	1
2	4327	14.328281021927	3
2	4333	14.328327021927	1
2	4342	14.35488135023	0
2	4347	14.35492735023	1
2	4361	14.358202185028	3
2	4365	14.358248185028	1
2	4382	14.428281022548	3
2	4388	14.428327022548	1
2	4397	14.45488135023	0
2	4402	14.45492735023	1
2	4416	14.45820218845	3
2	4420	14.45824818845	1
2	4437	14.528281023208	3
2	4443	14.528327023208	1
2	4452	14.55488135023	0
2	4457	14.55492735023	1
2	4472	14.55820219204	3
2	4478	14.55824819204	1
2	4492	14.628281023903	3
2	4498	14.628327023903	1
2	4507	14.65488135023	0
2	4512	14.65492735023	1
2	4527	14.658202195344	3
2	4533	14.658248195344	1
2	4547	14.728281024616	3
2	4553	14.728327024616	1
2	4562	14.75488135023	0
2	4567	14.75492735023	1
2	4582	14.758202198327	3
2	4588	14.758248198327	1
2	4602	14.82828102539	3
2	4608	14.82832702539	1
2	4617	14.85488135023	0
2	4622	14.85492735023	1
2	4637	14.858202201477	3
2	4643	14.858248201477	1
2	4657	14.928281026209	3
2	4663	14.928327026209	1
2	4672	14.95488135023	0
2	4677	14.95492735023	1
2	4692	14.958202204174	3
2	4698	14.958248204174	1
2	4712	15.028281027074	3
2	4718	15.028327027074	1
2	4727	15.05488135023	0
2	4732	15.05492735023	1
2	4747	15.058202205675	3
2	4753	15.058248205675	1
2	4767	15.128281027978	3
2	4773	15.128327027978	1
2	4782	15.15488135023	0
2	4787	15.15492735023	1
2	4802	15.158202207234	3
2	4808	15.158248207234	1
2	4822	15.228281028945	3
2	4828	15.228327028945	1
2	4837	15.25488135023	0
2	4842	15.25492735023	1
2	4857	15.258202207582	3
2	4863	15.258248207582	1
2	4877	15.328281029987	3
2	4883	15.328327029987	1
2	4892	15.35488135023	0
2	4897	15.35492735023	1
2	4912	15.358202207491	3
2	4918	15.358248207491	1
2	4932	15.42828103107	3
2	4938	15.42832703107	1
2	4947	15.45488135023	0
2	4952	15.45492735023	1
2	4967	15.45820220737	3
2	4973	15.45824820737	1
2	4987	15.528281032195	3
2	4993	15.528327032195	1
2	5002	15.55488135023	0
2	5007	15.55492735023	1
2	5022	15.558202206645	3
2	5028	15.558248206645	1
2	5042	15.628281033392	3
2	5048	15.628327033392	1
2	5057	15.65488135023	0
2	5062	15.65492735023	1
2	5077	15.658202205942	3
2	5083	15.658248205942	1
2	5097	15.728281034632	3
2	5103	15.728327034632	1
2	5112	15.75488135023	0
2	5117	15.75492735023	1
2	5132	15.758202205209	3
2	5138	15.758248205209	1
2	5152	15.828281035917	3
2	5158	15.828327035917	1
2	5167	15.85488135023	0
2	5172	15.85492735023	1
2	5187	15.858202205155	3
2	5193	15.858248205155	1
2	5207	15.928281037281	3
2	5213	15.928327037281	1
2	5222	15.95488135023	0
2	5227	15.95492735023	1
2	5242	15.958202205159	3
2	5248	15.958248205159	1
2	5262	16.028281038703	3
2	5268	16.028327038703	1
2	5277	16.05488135023	0
2	5282	16.05492735023	1
2	5297	16.05820220513	3
2	5303	16.05824820513	1
2	5317	16.128281040189	3
2	5323	16.128327040189	1
2	5332	16.15488135023	0
2	5337	16.15492735023	1
2	5352	16.158202205156	3
2	5358	16.158248205156	1
2	5372	16.228281041709	3
2	5378	16.228327041709	1
2	5387	16.25488135023	0
2	5392	16.25492735023	1
2	5407	16.258202205129	3
2	5413	16.258248205129	1
2	5427	16.328281043309	3
2	5433	16.328327043309	1
2	5442	16.35488135023	0
2	5447	16.35492735023	1
2	5462	16.358202205111	3
2	5468	16.358248205111	1
2	5482	16.428281044971	3
2	5488	16.428327044971	1
2	5497	16.45488135023	0
2	5502	16.45492735023	1
2	5517	16.458202205112	3
2	5523	16.458248205112	1
2	5537	16.528281046715	3
2	5543	16.528327046715	1
2	5552	16.55488135023	0
2	5557	16.55492735023	1
2	5572	16.55820220512	3
2	5578	16.55824820512	1
2	5592	16.628281048535	3
2	5598	16.628327048535	1
2	5607	16.65488135023	0
2	5612	16.65492735023	1
2	5627	16.658202205132	3
2	5633	16.658248205132	1
2	5647	16.728281050415	3
2	5653	16.728327050415	1
2	5662	16.75488135023	0
2	5667	16.75492735023	1
2	5682	16.758202205125	3
2	5688	16.758248205125	1
2	5702	16.82828105234	3
2	5708	16.82832705234	1
2	5717	16.85488135023	0
2	5722	16.85492735023	1
2	5737	16.858202205111	3
2	5743	16.858248205111	1
2	5757	16.928281054346	3
2	5763	16.928327054346	1
2	5772	16.95488135023	0
2	5777	16.95492735023	1
2	5792	16.958202205088	3
2	5798	16.958248205088	1
2	5812	17.028281056429	3
2	5818	17.028327056429	1
2	5827	17.05488135023	0
2	5832	17.05492735023	1
2	5847	17.058202205074	3
2	5853	17.058248205074	1
2	5867	17.128281058665	3
2	5873	17.128327058665	1
2	5882	17.15488135023	0
2	5887	17.15492735023	1
2	5902	17.158202205151	3
2	5908	17.158248205151	1
2	5922	17.228281061322	3
2	5928	17.228327061322	1
2	5937	17.25488135023	0
2	5942	17.25492735023	1
2	5957	17.258202205888	3
2	5963	17.258248205888	1
2	5977	17.328281064123	3
2	5983	17.328327064123	1
2	5992	17.35488135023	0
2	5997	17.35492735023	1
2	6012	17.358202206636	3
2	6018	17.358248206636	1
2	6032	17.428281067047	3
2	6038	17.428327067047	1
2	6047	17.45488135023	0
2	6052	17.45492735023	1
2	6067	17.458202207391	3
2	6073	17.458248207391	1
2	6087	17.528281068739	3
2	6093	17.528327068739	1
2	6102	17.55488135023	0
2	6107	17.55492735023	1
2	6122	17.558202207463	3
2	6128	17.558248207463	1
2	6142	17.628281070616	3
2	6148	17.628327070616	1
2	6157	17.65488135023	0
2	6162	17.65492735023	1
2	6177	17.658202207566	3
2	6183	17.658248207566	1
2	6197	17.728281071728	3
2	6203	17.728327071728	1
2	6212	17.75488135023	0
2	6217	17.75492735023	1
2	6232	17.758202206966	3
2	6238	17.758248206966	1
2	6252	17.828281071688	3
2	6258	17.828327071688	1
2	6267	17.85488135023	0
2	6272	17.85492735023	1
2	6287	17.858202205405	3
2	6293	17.858248205405	1
2	6307	17.928281071895	3
2	6313	17.928327071895	1
2	6322	17.95488135023	0
2	6327	17.95492735023	1
2	6342	17.958202203932	3
2	6348	17.958248203932	1
2	6362	18.028281070632	3
2	6368	18.028327070632	1
2	6377	18.05488135023	0
2	6382	18.05492735023	1
2	6397	18.058202201003	3
2	6403	18.058248201003	1
2	6417	18.128281069236	3
2	6423	18.128327069236	1
2	6432	18.15488135023	0
2	6437	18.15492735023	1
2	6452	18.158202197886	3
2	6458	18.158248197886	1
2	6472	18.228281068101	3
2	6478	18.228327068101	1
2	6487	18.25488135023	0
2	6492	18.25492735023	1
2	6507	18.258202194936	3
2	6513	18.258248194936	1
2	6527	18.328281066797	3
2	6533	18.328327066797	1
2	6542	18.35488135023	0
2	6547	18.35492735023	1
2	6562	18.358202191517	3
2	6568	18.358248191517	1
2	6582	18.428281065512	3
2	6588	18.428327065512	1
2	6597	18.45488135023	0
2	6602	18.45492735023	1
2	6617	18.458202187947	3
2	6623	18.458248187947	1
2	6637	18.528281064458	3
2	6643	18.528327064458	1
2	6652	18.55488135023	0
2	6657	18.55492735023	1
2	6672	18.558202184531	3
2	6678	18.558248184531	1
2	6692	18.628281063631	3
2	6698	18.628327063631	1
2	6707	18.65488135023	0
2	6712	18.65492735023	1
2	6727	18.658202181294	3
2	6733	18.658248181294	1
2	6747	18.728281063034	3
2	6753	18.728327063034	1
2	6762	18.75488135023	0
2	6767	18.75492735023	1
2	6782	18.758202178184	3
2	6788	18.758248178184	1
2	6802	18.828281062667	3
2	6808	18.828327062667	1
2	6817	18.85488135023	0
2	6822	18.85492735023	1
2	6837	18.858202175279	3
2	6843	18.858248175279	1
2	6857	18.928281062535	3
2	6863	18.928327062535	1
2	6872	18.95488135023	0
2	6877	18.95492735023	1
2	6891	18.958202172533	3
2	6895	18.958248172533	1
2	6912	19.028281062634	3
2	6918	19.028327062634	1
2	6927	19.05488135023	0
2	6932	19.05492735023	1
2	6946	19.058202169975	3
2	6950	19.058248169975	1
2	6967	19.128281062965	3
2	6973	19.128327062965	1
2	6982	19.15488135023	0
2	6987	19.15492735023	1
2	7001	19.158202167613	3
2	7005	19.158248167613	1
2	7022	19.228281063527	3
2	7028	19.228327063527	1
2	7037	19.25488135023	0
2	7042	19.25492735023	1
2	7056	19.258202165425	3
2	7060	19.258248165425	1
2	7077	19.328281064318	3
2	7083	19.328327064318	1
2	7092	19.35488135023	0
2	7097	19.35492735023	1
2	7111	19.35820216346	3
2	7115	19.35824816346	1
2	7132	19.428281065344	3
2	7138	19.428327065344	1
2	7147	19.45488135023	0
2	7152	19.45492735023	1
2	7166	19.458202161691	3
2	7170	19.458248161691	1
2	7187	19.528281066592	3
2	7193	19.528327066592	1
2	7202	19.55488135023	0
2	7207	19.55492735023	1
2	7221	19.558202160165	3
2	7225	19.558248160165	1
2	7242	19.628281067956	3
2	7248	19.628327067956	1
2	7257	19.65488135023	0
2	7262	19.65492735023	1
2	7276	19.658202158867	3
2	7280	19.658248158867	1
2	7297	19.728281069048	3
2	7303	19.728327069048	1
2	7312	19.75488135023	0
2	7317	19.75492735023	1
2	7331	19.75820215777	3
2	7335	19.75824815777	1
2	7352	19.828281070402	3
2	7358	19.828327070402	1
2	7367	19.85488135023	0
2	7372	19.85492735023	1
2	7386	19.858202156918	3
2	7390	19.858248156918	1
2	7407	19.928281071945	3
2	7413	19.928327071945	1
2	7422	19.95488135023	0
2	7427	19.95492735023	1
2	7441	19.958202156282	3
2	7445	19.958248156282	1
2	7462	20.028281071698	3
2	7468	20.028327071698	1
2	7477	20.05488135023	0
2	7482	20.05492735023	1
2	7496	20.058202155913	3
2	7500	20.058248155913	1
2	7517	20.128281071711	3
2	7523	20.128327071711	1
2	7532	20.15488135023	0
2	7537	20.15492735023	1
2	7551	20.158202155788	3
2	7555	20.158248155788	1
2	7572	20.228281070946	3
2	7578	20.228327070946	1
2	7587	20.25488135023	0
2	7592	20.25492735023	1
2	7606	20.258202155895	3
2	7610	20.258248155895	1
2	7627	20.328281069043	3
2	7633	20.328327069043	1
2	7642	20.35488135023	0
2	7647	20.35492735023	1
2	7661	20.358202156254	3
2	7665	20.358248156254	1
2	7682	20.42828106735	3
2	7688	20.42832706735	1
2	7697	20.45488135023	0
2	7702	20.45492735023	1
2	7716	20.45820215685	3
2	7720	20.45824815685	1
2	7737	20.528281064673	3
2	7743	20.528327064673	1
2	7752	20.55488135023	0
2	7757	20.55492735023	1
2	7771	20.558202157671	3
2	7775	20.558248157671	1
2	7792	20.628281061855	3
2	7798	20.628327061855	1
2	7807	20.65488135023	0
2	7812	20.65492735023	1
2	7826	20.658202158706	3
2	7830	20.658248158706	1
2	7847	20.7282810592	3
2	7853	20.7283270592	1
2	7862	20.75488135023	0
2	7867	20.75492735023	1
2	7881	20.758202160009	3
2	7885	20.758248160009	1
2	7902	20.828281056888	3
2	7908	20.828327056888	1
2	7917	20.85488135023	0
2	7922	20.85492735023	1
2	7936	20.858202161525	3
2	7940	20.858248161525	1
2	7957	20.928281054792	3
2	7963	20.928327054792	1
2	7972	20.95488135023	0
2	7977	20.95492735023	1
2	7991	20.958202163238	3
2	7995	20.958248163238	1
2	8012	21.028281052794	3
2	8018	21.028327052794	1
2	8027	21.05488135023	0
2	8032	21.05492735023	1
2	8046	21.058202165172	3
2	8050	21.058248165172	1
2	8067	21.128281050931	3
2	8073	21.128327050931	1
2	8082	21.15488135023	0
3	2	0.1	0
3	2	0.1	0
3	6	0.15488135023	0
3	6	0.15488135023	2
3	7	0.15488135023	2
3	7	0.15488135023	0
3	10	0.15488135023	0
3	10	0.15488135023	0
3	13	0.15492735023	0
3	13	0.15492735023	0
3	17	0.25488135023	0
3	17	0.25488135023	2
3	18	0.25488135023	2
3	18	0.25488135023	0
3	21	0.25488135023	0
3	21	0.25488135023	0
3	24	0.25492735023	0
3	24	0.25492735023	0
3	28	0.35488135023	0
3	28	0.35488135023	2
3	29	0.35488135023	2
3	29	0.35488135023	0
3	32	0.35488135023	0
3	32	0.35488135023	0
3	35	0.35492735023	0
3	35	0.35492735023	0
3	39	0.45488135023	0
3	39	0.45488135023	2
3	40	0.45488135023	2
3	40	0.45488135023	0
3	43	0.45488135023	0
3	43	0.45488135023	0
3	46	0.45492735023	0
3	46	0.45492735023	0
3	50	0.55488135023	0
3	50	0.55488135023	2
3	51	0.55488135023	2
3	51	0.55488135023	0
3	54	0.55488135023	0
3	54	0.55488135023	0
3	57	0.55492735023	0
3	57	0.55492735023	0
3	61	0.65488135023	0
3	61	0.65488135023	2
3	62	0.65488135023	2
3	62	0.65488135023	0
3	65	0.65488135023	0
3	65	0.65488135023	0
3	68	0.65492735023	0
3	68	0.65492735023	0
3	72	0.75488135023	0
3	72	0.75488135023	2
3	73	0.75488135023	2
3	73	0.75488135023	0
3	76	0.75488135023	0
3	76	0.75488135023	0
3	79	0.75492735023	0
3	79	0.75492735023	0
3	83	0.85488135023	0
3	83	0.85488135023	2
3	84	0.85488135023	2
3	84	0.85488135023	0
3	87	0.85488135023	0
3	87	0.85488135023	0
3	90	0.85492735023	0
3	90	0.85492735023	0
3	94	0.95488135023	0
3	94	0.95488135023	2
3	95	0.95488135023	2
3	95	0.95488135023	0
3	98	0.95488135023	0
3	98	0.95488135023	0
3	101	0.95492735023	0
3	101	0.95492735023	0
3	105	1.05488135023	0
3	105	1.05488135023	2
3	106	1.05488135023	2
3	106	1.05488135023	0
3	109	1.05488135023	0
3	109	1.05488135023	0
3	112	1.05492735023	0
3	112	1.05492735023	0
3	116	1.15488135023	0
3	116	1.15488135023	2
3	117	1.15488135023	2
3	117	1.15488135023	0
3	120	1.15488135023	0
3	120	1.15488135023	0
3	123	1.15492735023	0
3	123	1.15492735023	0
3	127	1.25488135023	0
3	127	1.25488135023	2
3	128	1.25488135023	2
3	128	1.25488135023	0
3	131	1.25488135023	0
3	131	1.25488135023	0
3	134	1.25492735023	0
3	134	1.25492735023	0
3	138	1.35488135023	0
3	138	1.35488135023	2
3	139	1.35488135023	2
3	139	1.35488135023	0
3	142	1.35488135023	0
3	142	1.35488135023	0
3	145	1.35492735023	0
3	145	1.35492735023	0
3	149	1.45488135023	0
3	149	1.45488135023	2
3	150	1.45488135023	2
3	150	1.45488135023	0
3	153	1.45488135023	0
3	153	1.45488135023	0
3	156	1.45492735023	0
3	156	1.45492735023	0
3	160	1.55488135023	0
3	160	1.55488135023	2
3	161	1.55488135023	2
3	161	1.55488135023	0
3	164	1.55488135023	0
3	164	1.55488135023	0
3	167	1.55492735023	0
3	167	1.55492735023	0
3	171	1.65488135023	0
3	171	1.65488135023	2
3	172	1.65488135023	2
3	172	1.65488135023	0
3	175	1.65488135023	0
3	175	1.65488135023	0
3	178	1.65492735023	0
3	178	1.65492735023	0
3	182	1.75488135023	0
3	182	1.75488135023	2
3	183	1.75488135023	2
3	183	1.75488135023	0
3	186	1.75488135023	0
3	186	1.75488135023	0
3	189	1.75492735023	0
3	189	1.75492735023	0
3	193	1.85488135023	0
3	193	1.85488135023	2
3	194	1.85488135023	2
3	194	1.85488135023	0
3	197	1.85488135023	0
3	197	1.85488135023	0
3	200	1.85492735023	0
3	200	1.85492735023	0
3	204	1.95488135023	0
3	204	1.95488135023	2
3	205	1.95488135023	2
3	205	1.95488135023	0
3	208	1.95488135023	0
3	208	1.95488135023	0
3	211	1.95492735023	0
3	211	1.95492735023	0
3	215	2.05488135023	0
3	215	2.05488135023	2
3	216	2.05488135023	2
3	216	2.05488135023	0
3	219	2.05488135023	0
3	219	2.05488135023	0
3	222	2.05492735023	0
3	222	2.05492735023	0
3	226	2.15488135023	0
3	226	2.15488135023	2
3	227	2.15488135023	2
3	227	2.15488135023	0
3	230	2.15488135023	0
3	230	2.15488135023	0
3	233	2.15492735023	0
3	233	2.15492735023	0
3	237	2.25488135023	0
3	237	2.25488135023	2
3	238	2.25488135023	2
3	238	2.25488135023	0
3	241	2.25488135023	0
3	241	2.25488135023	0
3	244	2.25492735023	0
3	244	2.25492735023	0
3	248	2.35488135023	0
3	248	2.35488135023	2
3	249	2.35488135023	2
3	249	2.35488135023	0
3	252	2.35488135023	0
3	252	2.35488135023	0
3	255	2.35492735023	0
3	255	2.35492735023	0
3	259	2.45488135023	0
3	259	2.45488135023	2
3	260	2.45488135023	2
3	260	2.45488135023	0
3	263	2.45488135023	0
3	263	2.45488135023	0
3	266	2.45492735023	0
3	266	2.45492735023	0
3	270	2.55488135023	0
3	270	2.55488135023	2
3	271	2.55488135023	2
3	271	2.55488135023	0
3	274	2.55488135023	0
3	274	2.55488135023	0
3	277	2.55492735023	0
3	277	2.55492735023	0
3	281	2.65488135023	0
3	281	2.65488135023	2
3	282	2.65488135023	2
3	282	2.65488135023	0
3	285	2.65488135023	0
3	285	2.65488135023	0
3	288	2.65492735023	0
3	288	2.65492735023	0
3	292	2.75488135023	0
3	292	2.75488135023	2
3	293	2.75488135023	2
3	293	2.75488135023	0
3	296	2.75488135023	0
3	296	2.75488135023	0
3	299	2.75492735023	0
3	299	2.75492735023	0
3	303	2.85488135023	0
3	303	2.85488135023	2
3	304	2.85488135023	2
3	304	2.85488135023	0
3	307	2.85488135023	0
3	307	2.85488135023	0
3	310	2.85492735023	0
3	310	2.85492735023	0
3	314	2.95488135023	0
3	314	2.95488135023	2
3	315	2.95488135023	2
3	315	2.95488135023	0
3	318	2.95488135023	0
3	318	2.95488135023	0
3	321	2.95492735023	0
3	321	2.95492735023	0
3	325	3.05488135023	0
3	325	3.05488135023	2
3	326	3.05488135023	2
3	326	3.05488135023	0
3	329	3.05488135023	0
3	329	3.05488135023	0
3	332	3.05492735023	0
3	332	3.05492735023	0
3	336	3.15488135023	0
3	336	3.15488135023	2
3	337	3.15488135023	2
3	337	3.15488135023	0
3	340	3.15488135023	0
3	340	3.15488135023	0
3	343	3.15492735023	0
3	343	3.15492735023	0
3	347	3.25488135023	0
3	347	3.25488135023	2
3	348	3.25488135023	2
3	348	3.25488135023	0
3	351	3.25488135023	0
3	351	3.25488135023	0
3	354	3.25492735023	0
3	354	3.25492735023	0
3	358	3.35488135023	0
3	358	3.35488135023	2
3	359	3.35488135023	2
3	359	3.35488135023	0
3	362	3.35488135023	0
3	362	3.35488135023	0
3	365	3.35492735023	0
3	365	3.35492735023	0
3	369	3.45488135023	0
3	369	3.45488135023	2
3	370	3.45488135023	2
3	370	3.45488135023	0
3	373	3.45488135023	0
3	373	3.45488135023	0
3	376	3.45492735023	0
3	376	3.45492735023	0
3	380	3.55488135023	0
3	380	3.55488135023	2
3	381	3.55488135023	2
3	381	3.55488135023	0
3	384	3.55488135023	0
3	384	3.55488135023	0
3	387	3.55492735023	0
3	387	3.55492735023	0
3	391	3.65488135023	0
3	391	3.65488135023	2
3	392	3.65488135023	2
3	392	3.65488135023	0
3	395	3.65488135023	0
3	395	3.65488135023	0
3	398	3.65492735023	0
3	398	3.65492735023	0
3	402	3.75488135023	0
3	402	3.75488135023	2
3	403	3.75488135023	2
3	403	3.75488135023	0
3	406	3.75488135023	0
3	406	3.75488135023	0
3	409	3.75492735023	0
3	409	3.75492735023	0
3	413	3.85488135023	0
3	413	3.85488135023	2
3	414	3.85488135023	2
3	414	3.85488135023	0
3	417	3.85488135023	0
3	417	3.85488135023	0
3	420	3.85492735023	0
3	420	3.85492735023	0
3	424	3.95488135023	0
3	424	3.95488135023	2
3	425	3.95488135023	2
3	425	3.95488135023	0
3	428	3.95488135023	0
3	428	3.95488135023	0
3	431	3.95492735023	0
3	431	3.95492735023	0
3	435	4.05488135023	0
3	435	4.05488135023	2
3	436	4.05488135023	2
3	436	4.05488135023	0
3	439	4.05488135023	0
3	439	4.05488135023	0
3	442	4.05492735023	0
3	442	4.05492735023	0
3	446	4.15488135023	0
3	446	4.15488135023	2
3	447	4.15488135023	2
3	447	4.15488135023	0
3	450	4.15488135023	0
3	450	4.15488135023	0
3	453	4.15492735023	0
3	453	4.15492735023	0
3	457	4.25488135023	0
3	457	4.25488135023	2
3	458	4.25488135023	2
3	458	4.25488135023	0
3	461	4.25488135023	0
3	461	4.25488135023	0
3	464	4.25492735023	0
3	464	4.25492735023	0
3	468	4.35488135023	0
3	468	4.35488135023	2
3	469	4.35488135023	2
3	469	4.35488135023	0
3	472	4.35488135023	0
3	472	4.35488135023	0
3	475	4.35492735023	0
3	475	4.35492735023	0
3	479	4.45488135023	0
3	479	4.45488135023	2
3	480	4.45488135023	2
3	480	4.45488135023	0
3	483	4.45488135023	0
3	483	4.45488135023	0
3	486	4.45492735023	0
3	486	4.45492735023	0
3	490	4.55488135023	0
3	490	4.55488135023	2
3	491	4.55488135023	2
3	491	4.55488135023	0
3	494	4.55488135023	0
3	494	4.55488135023	0
3	497	4.55492735023	0
3	497	4.55492735023	0
3	501	4.65488135023	0
3	501	4.65488135023	2
3	502	4.65488135023	2
3	502	4.65488135023	0
3	505	4.65488135023	0
3	505	4.65488135023	0
3	508	4.65492735023	0
3	508	4.65492735023	0
3	512	4.75488135023	0
3	512	4.75488135023	2
3	513	4.75488135023	2
3	513	4.75488135023	0
3	516	4.75488135023	0
3	516	4.75488135023	0
3	519	4.75492735023	0
3	519	4.75492735023	0
3	523	4.85488135023	0
3	523	4.85488135023	2
3	524	4.85488135023	2
3	524	4.85488135023	0
3	527	4.85488135023	0
3	527	4.85488135023	0
3	530	4.85492735023	0
3	530	4.85492735023	0
3	534	4.95488135023	0
3	534	4.95488135023	2
3	535	4.95488135023	2
3	535	4.95488135023	0
3	538	4.95488135023	0
3	538	4.95488135023	0
3	541	4.95492735023	0
3	541	4.95492735023	0
3	545	5.05488135023	0
3	545	5.05488135023	2
3	546	5.05488135023	2
3	546	5.05488135023	0
3	549	5.05488135023	0
3	549	5.05488135023	0
3	552	5.05492735023	0
3	552	5.05492735023	0
3	558	5.15488135023	0
3	558	5.15488135023	2
3	559	5.15488135023	2
3	559	5.15488135023	0
3	562	5.15488135023	0
3	562	5.15488135023	0
3	566	5.15492735023	0
3	566	5.15492735023	0
3	577	5.15820206443	0
3	577	5.15820206443	0
3	580	5.15824806443	0
3	580	5.15824806443	0
3	587	5.25488135023	0
3	587	5.25488135023	2
3	588	5.25488135023	2
3	588	5.25488135023	0
3	591	5.25488135023	0
3	591	5.25488135023	0
3	595	5.25492735023	0
3	595	5.25492735023	0
3	606	5.258202067627	0
3	606	5.258202067627	0
3	609	5.258248067627	0
3	609	5.258248067627	0
3	616	5.35488135023	0
3	616	5.35488135023	2
3	617	5.35488135023	2
3	617	5.35488135023	0
3	620	5.35488135023	0
3	620	5.35488135023	0
3	624	5.35492735023	0
3	624	5.35492735023	0
3	635	5.358202070823	0
3	635	5.358202070823	0
3	638	5.358248070823	0
3	638	5.358248070823	0
3	645	5.45488135023	0
3	645	5.45488135023	2
3	646	5.45488135023	2
3	646	5.45488135023	0
3	649	5.45488135023	0
3	649	5.45488135023	0
3	653	5.45492735023	0
3	653	5.45492735023	0
3	664	5.458202073987	0
3	664	5.458202073987	0
3	667	5.458248073987	0
3	667	5.458248073987	0
3	674	5.55488135023	0
3	674	5.55488135023	2
3	675	5.55488135023	2
3	675	5.55488135023	0
3	678	5.55488135023	0
3	678	5.55488135023	0
3	682	5.55492735023	0
3	682	5.55492735023	0
3	693	5.558202077131	0
3	693	5.558202077131	0
3	696	5.558248077131	0
3	696	5.558248077131	0
3	703	5.65488135023	0
3	703	5.65488135023	2
3	704	5.65488135023	2
3	704	5.65488135023	0
3	707	5.65488135023	0
3	707	5.65488135023	0
3	711	5.65492735023	0
3	711	5.65492735023	0
3	722	5.658202080266	0
3	722	5.658202080266	0
3	725	5.658248080266	0
3	725	5.658248080266	0
3	732	5.75488135023	0
3	732	5.75488135023	2
3	733	5.75488135023	2
3	733	5.75488135023	0
3	736	5.75488135023	0
3	736	5.75488135023	0
3	740	5.75492735023	0
3	740	5.75492735023	0
3	751	5.758202083394	0
3	751	5.758202083394	0
3	754	5.758248083394	0
3	754	5.758248083394	0
3	761	5.85488135023	0
3	761	5.85488135023	2
3	762	5.85488135023	2
3	762	5.85488135023	0
3	765	5.85488135023	0
3	765	5.85488135023	0
3	769	5.85492735023	0
3	769	5.85492735023	0
3	780	5.85820208651	0
3	780	5.85820208651	0
3	783	5.85824808651	0
3	783	5.85824808651	0
3	790	5.95488135023	0
3	790	5.95488135023	2
3	791	5.95488135023	2
3	791	5.95488135023	0
3	794	5.95488135023	0
3	794	5.95488135023	0
3	798	5.95492735023	0
3	798	5.95492735023	0
3	809	5.958202089613	0
3	809	5.958202089613	0
3	812	5.958248089613	0
3	812	5.958248089613	0
3	819	6.05488135023	0
3	819	6.05488135023	2
3	820	6.05488135023	2
3	820	6.05488135023	0
3	823	6.05488135023	0
3	823	6.05488135023	0
3	827	6.05492735023	0
3	827	6.05492735023	0
3	838	6.058202092697	0
3	838	6.058202092697	0
3	841	6.058248092697	0
3	841	6.058248092697	0
3	848	6.15488135023	0
3	848	6.15488135023	2
3	849	6.15488135023	2
3	849	6.15488135023	0
3	852	6.15488135023	0
3	852	6.15488135023	0
3	856	6.15492735023	0
3	856	6.15492735023	0
3	867	6.158202095792	0
3	867	6.158202095792	0
3	870	6.158248095792	0
3	870	6.158248095792	0
3	877	6.25488135023	0
3	877	6.25488135023	2
3	878	6.25488135023	2
3	878	6.25488135023	0
3	881	6.25488135023	0
3	881	6.25488135023	0
3	885	6.25492735023	0
3	885	6.25492735023	0
3	896	6.258202098867	0
3	896	6.258202098867	0
3	899	6.258248098867	0
3	899	6.258248098867	0
3	906	6.35488135023	0
3	906	6.35488135023	2
3	907	6.35488135023	2
3	907	6.35488135023	0
3	910	6.35488135023	0
3	910	6.35488135023	0
3	914	6.35492735023	0
3	914	6.35492735023	0
3	925	6.358202101926	0
3	925	6.358202101926	0
3	928	6.358248101926	0
3	928	6.358248101926	0
3	935	6.45488135023	0
3	935	6.45488135023	2
3	936	6.45488135023	2
3	936	6.45488135023	0
3	939	6.45488135023	0
3	939	6.45488135023	0
3	943	6.45492735023	0
3	943	6.45492735023	0
3	954	6.458202104974	0
3	954	6.458202104974	0
3	957	6.458248104974	0
3	957	6.458248104974	0
3	964	6.55488135023	0
3	964	6.55488135023	2
3	965	6.55488135023	2
3	965	6.55488135023	0
3	968	6.55488135023	0
3	968	6.55488135023	0
3	972	6.55492735023	0
3	972	6.55492735023	0
3	983	6.55820210802	0
3	983	6.55820210802	0
3	986	6.55824810802	0
3	986	6.55824810802	0
3	993	6.65488135023	0
3	993	6.65488135023	2
3	994	6.65488135023	2
3	994	6.65488135023	0
3	997	6.65488135023	0
3	997	6.65488135023	0
3	1001	6.65492735023	0
3	1001	6.65492735023	0
3	1012	6.658202111057	0
3	1012	6.658202111057	0
3	1015	6.658248111057	0
3	1015	6.658248111057	0
3	1022	6.75488135023	0
3	1022	6.75488135023	2
3	1023	6.75488135023	2
3	1023	6.75488135023	0
3	1026	6.75488135023	0
3	1026	6.75488135023	0
3	1030	6.75492735023	0
3	1030	6.75492735023	0
3	1041	6.758202114104	0
3	1041	6.758202114104	0
3	1044	6.758248114104	0
3	1044	6.758248114104	0
3	1051	6.85488135023	0
3	1051	6.85488135023	2
3	1052	6.85488135023	2
3	1052	6.85488135023	0
3	1055	6.85488135023	0
3	1055	6.85488135023	0
3	1059	6.85492735023	0
3	1059	6.85492735023	0
3	1070	6.858202117172	0
3	1070	6.858202117172	0
3	1073	6.858248117172	0
3	1073	6.858248117172	0
3	1080	6.95488135023	0
3	1080	6.95488135023	2
3	1081	6.95488135023	2
3	1081	6.95488135023	0
3	1084	6.95488135023	0
3	1084	6.95488135023	0
3	1088	6.95492735023	0
3	1088	6.95492735023	0
3	1099	6.958202120214	0
3	1099	6.958202120214	0
3	1102	6.958248120214	0
3	1102	6.958248120214	0
3	1109	7.05488135023	0
3	1109	7.05488135023	2
3	1110	7.05488135023	2
3	1110	7.05488135023	0
3	1113	7.05488135023	0
3	1113	7.05488135023	0
3	1117	7.05492735023	0
3	1117	7.05492735023	0
3	1128	7.058202123295	0
3	1128	7.058202123295	0
3	1131	7.058248123295	0
3	1131	7.058248123295	0
3	1138	7.15488135023	0
3	1138	7.15488135023	2
3	1139	7.15488135023	2
3	1139	7.15488135023	0
3	1142	7.15488135023	0
3	1142	7.15488135023	0
3	1146	7.15492735023	0
3	1146	7.15492735023	0
3	1157	7.158202126375	0
3	1157	7.158202126375	0
3	1160	7.158248126375	0
3	1160	7.158248126375	0
3	1167	7.25488135023	0
3	1167	7.25488135023	2
3	1168	7.25488135023	2
3	1168	7.25488135023	0
3	1171	7.25488135023	0
3	1171	7.25488135023	0
3	1175	7.25492735023	0
3	1175	7.25492735023	0
3	1186	7.258202129434	0
3	1186	7.258202129434	0
3	1189	7.258248129434	0
3	1189	7.258248129434	0
3	1196	7.35488135023	0
3	1196	7.35488135023	2
3	1197	7.35488135023	2
3	1197	7.35488135023	0
3	1200	7.35488135023	0
3	1200	7.35488135023	0
3	1204	7.35492735023	0
3	1204	7.35492735023	0
3	1215	7.358202132487	0
3	1215	7.358202132487	0
3	1218	7.358248132487	0
3	1218	7.358248132487	0
3	1225	7.45488135023	0
3	1225	7.45488135023	2
3	1226	7.45488135023	2
3	1226	7.45488135023	0
3	1229	7.45488135023	0
3	1229	7.45488135023	0
3	1233	7.45492735023	0
3	1233	7.45492735023	0
3	1244	7.45820213549	0
3	1244	7.45820213549	0
3	1247	7.45824813549	0
3	1247	7.45824813549	0
3	1254	7.55488135023	0
3	1254	7.55488135023	2
3	1255	7.55488135023	2
3	1255	7.55488135023	0
3	1258	7.55488135023	0
3	1258	7.55488135023	0
3	1262	7.55492735023	0
3	1262	7.55492735023	0
3	1273	7.558202138424	0
3	1273	7.558202138424	0
3	1276	7.558248138424	0
3	1276	7.558248138424	0
3	1283	7.65488135023	0
3	1283	7.65488135023	2
3	1284	7.65488135023	2
3	1284	7.65488135023	0
3	1287	7.65488135023	0
3	1287	7.65488135023	0
3	1291	7.65492735023	0
3	1291	7.65492735023	0
3	1302	7.658202141283	0
3	1302	7.658202141283	0
3	1305	7.658248141283	0
3	1305	7.658248141283	0
3	1312	7.75488135023	0
3	1312	7.75488135023	2
3	1313	7.75488135023	2
3	1313	7.75488135023	0
3	1316	7.75488135023	0
3	1316	7.75488135023	0
3	1320	7.75492735023	0
3	1320	7.75492735023	0
3	1331	7.758202144049	0
3	1331	7.758202144049	0
3	1334	7.758248144049	0
3	1334	7.758248144049	0
3	1341	7.85488135023	0
3	1341	7.85488135023	2
3	1342	7.85488135023	2
3	1342	7.85488135023	0
3	1345	7.85488135023	0
3	1345	7.85488135023	0
3	1349	7.85492735023	0
3	1349	7.85492735023	0
3	1360	7.85820214676	0
3	1360	7.85820214676	0
3	1363	7.85824814676	0
3	1363	7.85824814676	0
3	1370	7.95488135023	0
3	1370	7.95488135023	2
3	1371	7.95488135023	2
3	1371	7.95488135023	0
3	1374	7.95488135023	0
3	1374	7.95488135023	0
3	1378	7.95492735023	0
3	1378	7.95492735023	0
3	1389	7.958202149403	0
3	1389	7.958202149403	0
3	1392	7.958248149403	0
3	1392	7.958248149403	0
3	1399	8.05488135023	0
3	1399	8.05488135023	2
3	1400	8.05488135023	2
3	1400	8.05488135023	0
3	1403	8.05488135023	0
3	1403	8.05488135023	0
3	1407	8.05492735023	0
3	1407	8.05492735023	0
3	1418	8.058202152026	0
3	1418	8.058202152026	0
3	1421	8.058248152026	0
3	1421	8.058248152026	0
3	1428	8.15488135023	0
3	1428	8.15488135023	2
3	1429	8.15488135023	2
3	1429	8.15488135023	0
3	1432	8.15488135023	0
3	1432	8.15488135023	0
3	1436	8.15492735023	0
3	1436	8.15492735023	0
3	1447	8.158202154585	0
3	1447	8.158202154585	0
3	1450	8.158248154585	0
3	1450	8.158248154585	0
3	1457	8.25488135023	0
3	1457	8.25488135023	2
3	1458	8.25488135023	2
3	1458	8.25488135023	0
3	1461	8.25488135023	0
3	1461	8.25488135023	0
3	1465	8.25492735023	0
3	1465	8.25492735023	0
3	1476	8.258202157102	0
3	1476	8.258202157102	0
3	1479	8.258248157102	0
3	1479	8.258248157102	0
3	1486	8.35488135023	0
3	1486	8.35488135023	2
3	1487	8.35488135023	2
3	1487	8.35488135023	0
3	1490	8.35488135023	0
3	1490	8.35488135023	0
3	1494	8.35492735023	0
3	1494	8.35492735023	0
3	1505	8.358202159537	0
3	1505	8.358202159537	0
3	1508	8.358248159537	0
3	1508	8.358248159537	0
3	1515	8.45488135023	0
3	1515	8.45488135023	2
3	1516	8.45488135023	2
3	1516	8.45488135023	0
3	1519	8.45488135023	0
3	1519	8.45488135023	0
3	1523	8.45492735023	0
3	1523	8.45492735023	0
3	1534	8.45820216192	0
3	1534	8.45820216192	0
3	1537	8.45824816192	0
3	1537	8.45824816192	0
3	1544	8.55488135023	0
3	1544	8.55488135023	2
3	1545	8.55488135023	2
3	1545	8.55488135023	0
3	1548	8.55488135023	0
3	1548	8.55488135023	0
3	1552	8.55492735023	0
3	1552	8.55492735023	0
3	1563	8.558202164228	0
3	1563	8.558202164228	0
3	1566	8.558248164228	0
3	1566	8.558248164228	0
3	1573	8.65488135023	0
3	1573	8.65488135023	2
3	1574	8.65488135023	2
3	1574	8.65488135023	0
3	1577	8.65488135023	0
3	1577	8.65488135023	0
3	1581	8.65492735023	0
3	1581	8.65492735023	0
3	1592	8.658202166486	0
3	1592	8.658202166486	0
3	1595	8.658248166486	0
3	1595	8.658248166486	0
3	1602	8.75488135023	0
3	1602	8.75488135023	2
3	1603	8.75488135023	2
3	1603	8.75488135023	0
3	1606	8.75488135023	0
3	1606	8.75488135023	0
3	1610	8.75492735023	0
3	1610	8.75492735023	0
3	1621	8.758202168675	0
3	1621	8.758202168675	0
3	1624	8.758248168675	0
3	1624	8.758248168675	0
3	1631	8.85488135023	0
3	1631	8.85488135023	2
3	1632	8.85488135023	2
3	1632	8.85488135023	0
3	1635	8.85488135023	0
3	1635	8.85488135023	0
3	1639	8.85492735023	0
3	1639	8.85492735023	0
3	1650	8.858202170809	0
3	1650	8.858202170809	0
3	1653	8.858248170809	0
3	1653	8.858248170809	0
3	1660	8.95488135023	0
3	1660	8.95488135023	2
3	1661	8.95488135023	2
3	1661	8.95488135023	0
3	1664	8.95488135023	0
3	1664	8.95488135023	0
3	1668	8.95492735023	0
3	1668	8.95492735023	0
3	1679	8.958202172847	0
3	1679	8.958202172847	0
3	1682	8.958248172847	0
3	1682	8.958248172847	0
3	1689	9.05488135023	0
3	1689	9.05488135023	2
3	1690	9.05488135023	2
3	1690	9.05488135023	0
3	1693	9.05488135023	0
3	1693	9.05488135023	0
3	1697	9.05492735023	0
3	1697	9.05492735023	0
3	1708	9.058202174854	0
3	1708	9.058202174854	0
3	1711	9.058248174854	0
3	1711	9.058248174854	0
3	1718	9.15488135023	0
3	1718	9.15488135023	2
3	1719	9.15488135023	2
3	1719	9.15488135023	0
3	1722	9.15488135023	0
3	1722	9.15488135023	0
3	1726	9.15492735023	0
3	1726	9.15492735023	0
3	1737	9.158202176813	0
3	1737	9.158202176813	0
3	1740	9.158248176813	0
3	1740	9.158248176813	0
3	1747	9.25488135023	0
3	1747	9.25488135023	2
3	1748	9.25488135023	2
3	1748	9.25488135023	0
3	1751	9.25488135023	0
3	1751	9.25488135023	0
3	1755	9.25492735023	0
3	1755	9.25492735023	0
3	1766	9.258202178706	0
3	1766	9.258202178706	0
3	1769	9.258248178706	0
3	1769	9.258248178706	0
3	1776	9.35488135023	0
3	1776	9.35488135023	2
3	1777	9.35488135023	2
3	1777	9.35488135023	0
3	1780	9.35488135023	0
3	1780	9.35488135023	0
3	1784	9.35492735023	0
3	1784	9.35492735023	0
3	1795	9.358202180494	0
3	1795	9.358202180494	0
3	1798	9.358248180494	0
3	1798	9.358248180494	0
3	1805	9.45488135023	0
3	1805	9.45488135023	2
3	1806	9.45488135023	2
3	1806	9.45488135023	0
3	1809	9.45488135023	0
3	1809	9.45488135023	0
3	1813	9.45492735023	0
3	1813	9.45492735023	0
3	1824	9.458202182253	0
3	1824	9.458202182253	0
3	1827	9.458248182253	0
3	1827	9.458248182253	0
3	1834	9.55488135023	0
3	1834	9.55488135023	2
3	1835	9.55488135023	2
3	1835	9.55488135023	0
3	1838	9.55488135023	0
3	1838	9.55488135023	0
3	1842	9.55492735023	0
3	1842	9.55492735023	0
3	1853	9.558202183922	0
3	1853	9.558202183922	0
3	1856	9.558248183922	0
3	1856	9.558248183922	0
3	1863	9.65488135023	0
3	1863	9.65488135023	2
3	1864	9.65488135023	2
3	1864	9.65488135023	0
3	1867	9.65488135023	0
3	1867	9.65488135023	0
3	1871	9.65492735023	0
3	1871	9.65492735023	0
3	1882	9.65820218558	0
3	1882	9.65820218558	0
3	1885	9.65824818558	0
3	1885	9.65824818558	0
3	1892	9.75488135023	0
3	1892	9.75488135023	2
3	1893	9.75488135023	2
3	1893	9.75488135023	0
3	1896	9.75488135023	0
3	1896	9.75488135023	0
3	1900	9.75492735023	0
3	1900	9.75492735023	0
3	1911	9.758202187475	0
3	1911	9.758202187475	0
3	1914	9.758248187475	0
3	1914	9.758248187475	0
3	1921	9.85488135023	0
3	1921	9.85488135023	2
3	1922	9.85488135023	2
3	1922	9.85488135023	0
3	1925	9.85488135023	0
3	1925	9.85488135023	0
3	1929	9.85492735023	0
3	1929	9.85492735023	0
3	1940	9.858202189723	0
3	1940	9.858202189723	0
3	1943	9.858248189723	0
3	1943	9.858248189723	0
3	1950	9.95488135023	0
3	1950	9.95488135023	2
3	1951	9.95488135023	2
3	1951	9.95488135023	0
3	1954	9.95488135023	0
3	1954	9.95488135023	0
3	1958	9.95492735023	0
3	1958	9.95492735023	0
3	1969	9.958202191865	0
3	1969	9.958202191865	0
3	1972	9.958248191865	0
3	1972	9.958248191865	0
3	1979	10.05488135023	0
3	1979	10.05488135023	2
3	1980	10.05488135023	2
3	1980	10.05488135023	0
3	1983	10.05488135023	0
3	1983	10.05488135023	0
3	1987	10.05492735023	0
3	1987	10.05492735023	0
3	1998	10.058202193756	0
3	1998	10.058202193756	0
3	2001	10.058248193756	0
3	2001	10.058248193756	0
3	2017	10.128280999982	0
3	2017	10.128280999982	0
3	2023	10.128326999982	0
3	2023	10.128326999982	0
3	2028	10.15488135023	0
3	2028	10.15488135023	2
3	2029	10.15488135023	2
3	2029	10.15488135023	0
3	2032	10.15488135023	0
3	2032	10.15488135023	0
3	2037	10.15492735023	0
3	2037	10.15492735023	0
3	2052	10.158202195103	0
3	2052	10.158202195103	0
3	2058	10.158248195103	0
3	2058	10.158248195103	0
3	2072	10.228281004607	0
3	2072	10.228281004607	0
3	2078	10.228327004607	0
3	2078	10.228327004607	0
3	2083	10.25488135023	0
3	2083	10.25488135023	2
3	2084	10.25488135023	2
3	2084	10.25488135023	0
3	2087	10.25488135023	0
3	2087	10.25488135023	0
3	2092	10.25492735023	0
3	2092	10.25492735023	0
3	2107	10.258202196449	0
3	2107	10.258202196449	0
3	2113	10.258248196449	0
3	2113	10.258248196449	0
3	2127	10.328281007875	0
3	2127	10.328281007875	0
3	2133	10.328327007875	0
3	2133	10.328327007875	0
3	2138	10.35488135023	0
3	2138	10.35488135023	2
3	2139	10.35488135023	2
3	2139	10.35488135023	0
3	2142	10.35488135023	0
3	2142	10.35488135023	0
3	2147	10.35492735023	0
3	2147	10.35492735023	0
3	2162	10.358202196473	0
3	2162	10.358202196473	0
3	2168	10.358248196473	0
3	2168	10.358248196473	0
3	2182	10.428281010609	0
3	2182	10.428281010609	0
3	2188	10.428327010609	0
3	2188	10.428327010609	0
3	2193	10.45488135023	0
3	2193	10.45488135023	2
3	2194	10.45488135023	2
3	2194	10.45488135023	0
3	2197	10.45488135023	0
3	2197	10.45488135023	0
3	2202	10.45492735023	0
3	2202	10.45492735023	0
3	2217	10.458202196025	0
3	2217	10.458202196025	0
3	2223	10.458248196025	0
3	2223	10.458248196025	0
3	2237	10.528281013119	0
3	2237	10.528281013119	0
3	2243	10.528327013119	0
3	2243	10.528327013119	0
3	2248	10.55488135023	0
3	2248	10.55488135023	2
3	2249	10.55488135023	2
3	2249	10.55488135023	0
3	2252	10.55488135023	0
3	2252	10.55488135023	0
3	2257	10.55492735023	0
3	2257	10.55492735023	0
3	2272	10.558202195391	0
3	2272	10.558202195391	0
3	2278	10.558248195391	0
3	2278	10.558248195391	0
3	2292	10.628281013887	0
3	2292	10.628281013887	0
3	2298	10.628327013887	0
3	2298	10.628327013887	0
3	2303	10.65488135023	0
3	2303	10.65488135023	2
3	2304	10.65488135023	2
3	2304	10.65488135023	0
3	2307	10.65488135023	0
3	2307	10.65488135023	0
3	2312	10.65492735023	0
3	2312	10.65492735023	0
3	2327	10.65820219313	0
3	2327	10.65820219313	0
3	2333	10.65824819313	0
3	2333	10.65824819313	0
3	2347	10.728281014674	0
3	2347	10.728281014674	0
3	2353	10.728327014674	0
3	2353	10.728327014674	0
3	2358	10.75488135023	0
3	2358	10.75488135023	2
3	2359	10.75488135023	2
3	2359	10.75488135023	0
3	2362	10.75488135023	0
3	2362	10.75488135023	0
3	2367	10.75492735023	0
3	2367	10.75492735023	0
3	2382	10.758202190965	0
3	2382	10.758202190965	0
3	2388	10.758248190965	0
3	2388	10.758248190965	0
3	2402	10.828281015465	0
3	2402	10.828281015465	0
3	2408	10.828327015465	0
3	2408	10.828327015465	0
3	2413	10.85488135023	0
3	2413	10.85488135023	2
3	2414	10.85488135023	2
3	2414	10.85488135023	0
3	2417	10.85488135023	0
3	2417	10.85488135023	0
3	2422	10.85492735023	0
3	2422	10.85492735023	0
3	2437	10.858202188902	0
3	2437	10.858202188902	0
3	2443	10.858248188902	0
3	2443	10.858248188902	0
3	2457	10.928281015467	0
3	2457	10.928281015467	0
3	2463	10.928327015467	0
3	2463	10.928327015467	0
3	2468	10.95488135023	0
3	2468	10.95488135023	2
3	2469	10.95488135023	2
3	2469	10.95488135023	0
3	2472	10.95488135023	0
3	2472	10.95488135023	0
3	2477	10.95492735023	0
3	2477	10.95492735023	0
3	2492	10.958202186075	0
3	2492	10.958202186075	0
3	2498	10.958248186075	0
3	2498	10.958248186075	0
3	2512	11.028281015441	0
3	2512	11.028281015441	0
3	2518	11.028327015441	0
3	2518	11.028327015441	0
3	2523	11.05488135023	0
3	2523	11.05488135023	2
3	2524	11.05488135023	2
3	2524	11.05488135023	0
3	2527	11.05488135023	0
3	2527	11.05488135023	0
3	2532	11.05492735023	0
3	2532	11.05492735023	0
3	2547	11.058202183309	0
3	2547	11.058202183309	0
3	2553	11.058248183309	0
3	2553	11.058248183309	0
3	2567	11.128281015409	0
3	2567	11.128281015409	0
3	2573	11.128327015409	0
3	2573	11.128327015409	0
3	2578	11.15488135023	0
3	2578	11.15488135023	2
3	2579	11.15488135023	2
3	2579	11.15488135023	0
3	2582	11.15488135023	0
3	2582	11.15488135023	0
3	2587	11.15492735023	0
3	2587	11.15492735023	0
3	2602	11.158202180642	0
3	2602	11.158202180642	0
3	2608	11.158248180642	0
3	2608	11.158248180642	0
3	2622	11.228281015387	0
3	2622	11.228281015387	0
3	2628	11.228327015387	0
3	2628	11.228327015387	0
3	2633	11.25488135023	0
3	2633	11.25488135023	2
3	2634	11.25488135023	2
3	2634	11.25488135023	0
3	2637	11.25488135023	0
3	2637	11.25488135023	0
3	2642	11.25492735023	0
3	2642	11.25492735023	0
3	2657	11.258202178038	0
3	2657	11.258202178038	0
3	2663	11.258248178038	0
3	2663	11.258248178038	0
3	2677	11.328281015372	0
3	2677	11.328281015372	0
3	2683	11.328327015372	0
3	2683	11.328327015372	0
3	2688	11.35488135023	0
3	2688	11.35488135023	2
3	2689	11.35488135023	2
3	2689	11.35488135023	0
3	2692	11.35488135023	0
3	2692	11.35488135023	0
3	2697	11.35492735023	0
3	2697	11.35492735023	0
3	2712	11.358202175507	0
3	2712	11.358202175507	0
3	2718	11.358248175507	0
3	2718	11.358248175507	0
3	2732	11.428281015354	0
3	2732	11.428281015354	0
3	2738	11.428327015354	0
3	2738	11.428327015354	0
3	2743	11.45488135023	0
3	2743	11.45488135023	2
3	2744	11.45488135023	2
3	2744	11.45488135023	0
3	2747	11.45488135023	0
3	2747	11.45488135023	0
3	2752	11.45492735023	0
3	2752	11.45492735023	0
3	2767	11.458202173093	0
3	2767	11.458202173093	0
3	2773	11.458248173093	0
3	2773	11.458248173093	0
3	2787	11.528281015342	0
3	2787	11.528281015342	0
3	2793	11.528327015342	0
3	2793	11.528327015342	0
3	2798	11.55488135023	0
3	2798	11.55488135023	2
3	2799	11.55488135023	2
3	2799	11.55488135023	0
3	2802	11.55488135023	0
3	2802	11.55488135023	0
3	2807	11.55492735023	0
3	2807	11.55492735023	0
3	2822	11.558202170782	0
3	2822	11.558202170782	0
3	2828	11.558248170782	0
3	2828	11.558248170782	0
3	2842	11.628281015314	0
3	2842	11.628281015314	0
3	2848	11.628327015314	0
3	2848	11.628327015314	0
3	2853	11.65488135023	0
3	2853	11.65488135023	2
3	2854	11.65488135023	2
3	2854	11.65488135023	0
3	2857	11.65488135023	0
3	2857	11.65488135023	0
3	2862	11.65492735023	0
3	2862	11.65492735023	0
3	2877	11.658202168587	0
3	2877	11.658202168587	0
3	2883	11.658248168587	0
3	2883	11.658248168587	0
3	2897	11.728281015292	0
3	2897	11.728281015292	0
3	2903	11.728327015292	0
3	2903	11.728327015292	0
3	2908	11.75488135023	0
3	2908	11.75488135023	2
3	2909	11.75488135023	2
3	2909	11.75488135023	0
3	2912	11.75488135023	0
3	2912	11.75488135023	0
3	2917	11.75492735023	0
3	2917	11.75492735023	0
3	2932	11.758202166539	0
3	2932	11.758202166539	0
3	2938	11.758248166539	0
3	2938	11.758248166539	0
3	2952	11.828281015288	0
3	2952	11.828281015288	0
3	2958	11.828327015288	0
3	2958	11.828327015288	0
3	2963	11.85488135023	0
3	2963	11.85488135023	2
3	2964	11.85488135023	2
3	2964	11.85488135023	0
3	2967	11.85488135023	0
3	2967	11.85488135023	0
3	2972	11.85492735023	0
3	2972	11.85492735023	0
3	2987	11.858202164617	0
3	2987	11.858202164617	0
3	2993	11.858248164617	0
3	2993	11.858248164617	0
3	3007	11.928281015295	0
3	3007	11.928281015295	0
3	3013	11.928327015295	0
3	3013	11.928327015295	0
3	3018	11.95488135023	0
3	3018	11.95488135023	2
3	3019	11.95488135023	2
3	3019	11.95488135023	0
3	3022	11.95488135023	0
3	3022	11.95488135023	0
3	3027	11.95492735023	0
3	3027	11.95492735023	0
3	3042	11.958202162821	0
3	3042	11.958202162821	0
3	3048	11.958248162821	0
3	3048	11.958248162821	0
3	3062	12.028281015329	0
3	3062	12.028281015329	0
3	3068	12.028327015329	0
3	3068	12.028327015329	0
3	3073	12.05488135023	0
3	3073	12.05488135023	2
3	3074	12.05488135023	2
3	3074	12.05488135023	0
3	3077	12.05488135023	0
3	3077	12.05488135023	0
3	3082	12.05492735023	0
3	3082	12.05492735023	0
3	3097	12.058202161167	0
3	3097	12.058202161167	0
3	3103	12.058248161167	0
3	3103	12.058248161167	0
3	3117	12.128281015388	0
3	3117	12.128281015388	0
3	3123	12.128327015388	0
3	3123	12.128327015388	0
3	3128	12.15488135023	0
3	3128	12.15488135023	2
3	3129	12.15488135023	2
3	3129	12.15488135023	0
3	3132	12.15488135023	0
3	3132	12.15488135023	0
3	3137	12.15492735023	0
3	3137	12.15492735023	0
3	3152	12.158202159686	0
3	3152	12.158202159686	0
3	3158	12.158248159686	0
3	3158	12.158248159686	0
3	3172	12.22828101546	0
3	3172	12.22828101546	0
3	3178	12.22832701546	0
3	3178	12.22832701546	0
3	3183	12.25488135023	0
3	3183	12.25488135023	2
3	3184	12.25488135023	2
3	3184	12.25488135023	0
3	3187	12.25488135023	0
3	3187	12.25488135023	0
3	3192	12.25492735023	0
3	3192	12.25492735023	0
3	3207	12.258202158432	0
3	3207	12.258202158432	0
3	3213	12.258248158432	0
3	3213	12.258248158432	0
3	3227	12.328281015544	0
3	3227	12.328281015544	0
3	3233	12.328327015544	0
3	3233	12.328327015544	0
3	3238	12.35488135023	0
3	3238	12.35488135023	2
3	3239	12.35488135023	2
3	3239	12.35488135023	0
3	3242	12.35488135023	0
3	3242	12.35488135023	0
3	3247	12.35492735023	0
3	3247	12.35492735023	0
3	3262	12.358202157407	0
3	3262	12.358202157407	0
3	3268	12.358248157407	0
3	3268	12.358248157407	0
3	3282	12.42828101567	0
3	3282	12.42828101567	0
3	3288	12.42832701567	0
3	3288	12.42832701567	0
3	3293	12.45488135023	0
3	3293	12.45488135023	2
3	3294	12.45488135023	2
3	3294	12.45488135023	0
3	3297	12.45488135023	0
3	3297	12.45488135023	0
3	3302	12.45492735023	0
3	3302	12.45492735023	0
3	3317	12.458202156643	0
3	3317	12.458202156643	0
3	3323	12.458248156643	0
3	3323	12.458248156643	0
3	3337	12.5282810158	0
3	3337	12.5282810158	0
3	3343	12.5283270158	0
3	3343	12.5283270158	0
3	3348	12.55488135023	0
3	3348	12.55488135023	2
3	3349	12.55488135023	2
3	3349	12.55488135023	0
3	3352	12.55488135023	0
3	3352	12.55488135023	0
3	3357	12.55492735023	0
3	3357	12.55492735023	0
3	3372	12.55820215609	0
3	3372	12.55820215609	0
3	3378	12.55824815609	0
3	3378	12.55824815609	0
3	3392	12.62828101595	0
3	3392	12.62828101595	0
3	3398	12.62832701595	0
3	3398	12.62832701595	0
3	3403	12.65488135023	0
3	3403	12.65488135023	2
3	3404	12.65488135023	2
3	3404	12.65488135023	0
3	3407	12.65488135023	0
3	3407	12.65488135023	0
3	3412	12.65492735023	0
3	3412	12.65492735023	0
3	3427	12.658202155787	0
3	3427	12.658202155787	0
3	3433	12.658248155787	0
3	3433	12.658248155787	0
3	3447	12.728281016138	0
3	3447	12.728281016138	0
3	3453	12.728327016138	0
3	3453	12.728327016138	0
3	3458	12.75488135023	0
3	3458	12.75488135023	2
3	3459	12.75488135023	2
3	3459	12.75488135023	0
3	3462	12.75488135023	0
3	3462	12.75488135023	0
3	3467	12.75492735023	0
3	3467	12.75492735023	0
3	3482	12.758202155726	0
3	3482	12.758202155726	0
3	3488	12.758248155726	0
3	3488	12.758248155726	0
3	3502	12.828281016326	0
3	3502	12.828281016326	0
3	3508	12.828327016326	0
3	3508	12.828327016326	0
3	3513	12.85488135023	0
3	3513	12.85488135023	2
3	3514	12.85488135023	2
3	3514	12.85488135023	0
3	3517	12.85488135023	0
3	3517	12.85488135023	0
3	3522	12.85492735023	0
3	3522	12.85492735023	0
3	3537	12.858202155887	0
3	3537	12.858202155887	0
3	3543	12.858248155887	0
3	3543	12.858248155887	0
3	3557	12.928281016524	0
3	3557	12.928281016524	0
3	3563	12.928327016524	0
3	3563	12.928327016524	0
3	3568	12.95488135023	0
3	3568	12.95488135023	2
3	3569	12.95488135023	2
3	3569	12.95488135023	0
3	3572	12.95488135023	0
3	3572	12.95488135023	0
3	3577	12.95492735023	0
3	3577	12.95492735023	0
3	3592	12.958202156307	0
3	3592	12.958202156307	0
3	3598	12.958248156307	0
3	3598	12.958248156307	0
3	3612	13.028281016757	0
3	3612	13.028281016757	0
3	3618	13.028327016757	0
3	3618	13.028327016757	0
3	3623	13.05488135023	0
3	3623	13.05488135023	2
3	3624	13.05488135023	2
3	3624	13.05488135023	0
3	3627	13.05488135023	0
3	3627	13.05488135023	0
3	3632	13.05492735023	0
3	3632	13.05492735023	0
3	3646	13.058202156952	0
3	3646	13.058202156952	0
3	3650	13.058248156952	0
3	3650	13.058248156952	0
3	3667	13.128281017006	0
3	3667	13.128281017006	0
3	3673	13.128327017006	0
3	3673	13.128327017006	0
3	3678	13.15488135023	0
3	3678	13.15488135023	2
3	3679	13.15488135023	2
3	3679	13.15488135023	0
3	3682	13.15488135023	0
3	3682	13.15488135023	0
3	3687	13.15492735023	0
3	3687	13.15492735023	0
3	3701	13.158202157829	0
3	3701	13.158202157829	0
3	3705	13.158248157829	0
3	3705	13.158248157829	0
3	3722	13.22828101728	0
3	3722	13.22828101728	0
3	3728	13.22832701728	0
3	3728	13.22832701728	0
3	3733	13.25488135023	0
3	3733	13.25488135023	2
3	3734	13.25488135023	2
3	3734	13.25488135023	0
3	3737	13.25488135023	0
3	3737	13.25488135023	0
3	3742	13.25492735023	0
3	3742	13.25492735023	0
3	3756	13.258202158946	0
3	3756	13.258202158946	0
3	3760	13.258248158946	0
3	3760	13.258248158946	0
3	3777	13.328281017569	0
3	3777	13.328281017569	0
3	3783	13.328327017569	0
3	3783	13.328327017569	0
3	3788	13.35488135023	0
3	3788	13.35488135023	2
3	3789	13.35488135023	2
3	3789	13.35488135023	0
3	3792	13.35488135023	0
3	3792	13.35488135023	0
3	3797	13.35492735023	0
3	3797	13.35492735023	0
3	3811	13.358202160303	0
3	3811	13.358202160303	0
3	3815	13.358248160303	0
3	3815	13.358248160303	0
3	3832	13.428281017876	0
3	3832	13.428281017876	0
3	3838	13.428327017876	0
3	3838	13.428327017876	0
3	3843	13.45488135023	0
3	3843	13.45488135023	2
3	3844	13.45488135023	2
3	3844	13.45488135023	0
3	3847	13.45488135023	0
3	3847	13.45488135023	0
3	3852	13.45492735023	0
3	3852	13.45492735023	0
3	3866	13.458202161867	0
3	3866	13.458202161867	0
3	3870	13.458248161867	0
3	3870	13.458248161867	0
3	3887	13.528281018208	0
3	3887	13.528281018208	0
3	3893	13.528327018208	0
3	3893	13.528327018208	0
3	3898	13.55488135023	0
3	3898	13.55488135023	2
3	3899	13.55488135023	2
3	3899	13.55488135023	0
3	3902	13.55488135023	0
3	3902	13.55488135023	0
3	3907	13.55492735023	0
3	3907	13.55492735023	0
3	3921	13.558202163654	0
3	3921	13.558202163654	0
3	3925	13.558248163654	0
3	3925	13.558248163654	0
3	3942	13.628281018571	0
3	3942	13.628281018571	0
3	3948	13.628327018571	0
3	3948	13.628327018571	0
3	3953	13.65488135023	0
3	3953	13.65488135023	2
3	3954	13.65488135023	2
3	3954	13.65488135023	0
3	3957	13.65488135023	0
3	3957	13.65488135023	0
3	3962	13.65492735023	0
3	3962	13.65492735023	0
3	3976	13.658202165672	0
3	3976	13.658202165672	0
3	3980	13.658248165672	0
3	3980	13.658248165672	0
3	3997	13.728281018939	0
3	3997	13.728281018939	0
3	4003	13.728327018939	0
3	4003	13.728327018939	0
3	4008	13.75488135023	0
3	4008	13.75488135023	2
3	4009	13.75488135023	2
3	4009	13.75488135023	0
3	4012	13.75488135023	0
3	4012	13.75488135023	0
3	4017	13.75492735023	0
3	4017	13.75492735023	0
3	4031	13.758202167871	0
3	4031	13.758202167871	0
3	4035	13.758248167871	0
3	4035	13.758248167871	0
3	4052	13.828281019349	0
3	4052	13.828281019349	0
3	4058	13.828327019349	0
3	4058	13.828327019349	0
3	4063	13.85488135023	0
3	4063	13.85488135023	2
3	4064	13.85488135023	2
3	4064	13.85488135023	0
3	4067	13.85488135023	0
3	4067	13.85488135023	0
3	4072	13.85492735023	0
3	4072	13.85492735023	0
3	4086	13.85820217028	0
3	4086	13.85820217028	0
3	4090	13.85824817028	0
3	4090	13.85824817028	0
3	4107	13.928281019793	0
3	4107	13.928281019793	0
3	4113	13.928327019793	0
3	4113	13.928327019793	0
3	4118	13.95488135023	0
3	4118	13.95488135023	2
3	4119	13.95488135023	2
3	4119	13.95488135023	0
3	4122	13.95488135023	0
3	4122	13.95488135023	0
3	4127	13.95492735023	0
3	4127	13.95492735023	0
3	4141	13.958202172861	0
3	4141	13.958202172861	0
3	4145	13.958248172861	0
3	4145	13.958248172861	0
3	4162	14.028281020275	0
3	4162	14.028281020275	0
3	4168	14.028327020275	0
3	4168	14.028327020275	0
3	4173	14.05488135023	0
3	4173	14.05488135023	2
3	4174	14.05488135023	2
3	4174	14.05488135023	0
3	4177	14.05488135023	0
3	4177	14.05488135023	0
3	4182	14.05492735023	0
3	4182	14.05492735023	0
3	4196	14.058202175646	0
3	4196	14.058202175646	0
3	4200	14.058248175646	0
3	4200	14.058248175646	0
3	4217	14.128281020787	0
3	4217	14.128281020787	0
3	4223	14.128327020787	0
3	4223	14.128327020787	0
3	4228	14.15488135023	0
3	4228	14.15488135023	2
3	4229	14.15488135023	2
[...]
36	3778	13.328326695947	1
36	3779	13.328326695947	0
36	3829	13.428280695947	1
36	3830	13.428280695947	2
36	3833	13.428326695947	1
36	3834	13.428326695947	0
36	3884	13.528280695947	1
36	3885	13.528280695947	2
36	3888	13.528326695947	1
36	3889	13.528326695947	0
36	3939	13.628280695947	1
36	3940	13.628280695947	2
36	3943	13.628326695947	1
36	3944	13.628326695947	0
36	3994	13.728280695947	1
36	3995	13.728280695947	2
36	3998	13.728326695947	1
36	3999	13.728326695947	0
36	4049	13.828280695947	1
36	4050	13.828280695947	2
36	4053	13.828326695947	1
36	4054	13.828326695947	0
36	4104	13.928280695947	1
36	4105	13.928280695947	2
36	4108	13.928326695947	1
36	4109	13.928326695947	0
36	4159	14.028280695947	1
36	4160	14.028280695947	2
36	4163	14.028326695947	1
36	4164	14.028326695947	0
36	4214	14.128280695947	1
36	4215	14.128280695947	2
36	4218	14.128326695947	1
36	4219	14.128326695947	0
36	4269	14.228280695947	1
36	4270	14.228280695947	2
36	4273	14.228326695947	1
36	4274	14.228326695947	0
36	4324	14.328280695947	1
36	4325	14.328280695947	2
36	4328	14.328326695947	1
36	4329	14.328326695947	0
36	4379	14.428280695947	1
36	4380	14.428280695947	2
36	4383	14.428326695947	1
36	4384	14.428326695947	0
36	4434	14.528280695947	1
36	4435	14.528280695947	2
36	4438	14.528326695947	1
36	4439	14.528326695947	0
36	4489	14.628280695947	1
36	4490	14.628280695947	2
36	4493	14.628326695947	1
36	4494	14.628326695947	0
36	4544	14.728280695947	1
36	4545	14.728280695947	2
36	4548	14.728326695947	1
36	4549	14.728326695947	0
36	4599	14.828280695947	1
36	4600	14.828280695947	2
36	4603	14.828326695947	1
36	4604	14.828326695947	0
36	4654	14.928280695947	1
36	4655	14.928280695947	2
36	4658	14.928326695947	1
36	4659	14.928326695947	0
36	4709	15.028280695947	1
36	4710	15.028280695947	2
36	4713	15.028326695947	1
36	4714	15.028326695947	0
36	4764	15.128280695947	1
36	4765	15.128280695947	2
36	4768	15.128326695947	1
36	4769	15.128326695947	0
36	4819	15.228280695947	1
36	4820	15.228280695947	2
36	4823	15.228326695947	1
36	4824	15.228326695947	0
36	4874	15.328280695947	1
36	4875	15.328280695947	2
36	4878	15.328326695947	1
36	4879	15.328326695947	0
36	4929	15.428280695947	1
36	4930	15.428280695947	2
36	4933	15.428326695947	1
36	4934	15.428326695947	0
36	4984	15.528280695947	1
36	4985	15.528280695947	2
36	4988	15.528326695947	1
36	4989	15.528326695947	0
36	5039	15.628280695947	1
36	5040	15.628280695947	2
36	5043	15.628326695947	1
36	5044	15.628326695947	0
36	5094	15.728280695947	1
36	5095	15.728280695947	2
36	5098	15.728326695947	1
36	5099	15.728326695947	0
36	5149	15.828280695947	1
36	5150	15.828280695947	2
36	5153	15.828326695947	1
36	5154	15.828326695947	0
36	5204	15.928280695947	1
36	5205	15.928280695947	2
36	5208	15.928326695947	1
36	5209	15.928326695947	0
36	5259	16.028280695947	1
36	5260	16.028280695947	2
36	5263	16.028326695947	1
36	5264	16.028326695947	0
36	5314	16.128280695947	1
36	5315	16.128280695947	2
36	5318	16.128326695947	1
36	5319	16.128326695947	0
36	5369	16.228280695947	1
36	5370	16.228280695947	2
36	5373	16.228326695947	1
36	5374	16.228326695947	0
36	5424	16.328280695947	1
36	5425	16.328280695947	2
36	5428	16.328326695947	1
36	5429	16.328326695947	0
36	5479	16.428280695947	1
36	5480	16.428280695947	2
36	5483	16.428326695947	1
36	5484	16.428326695947	0
36	5534	16.528280695947	1
36	5535	16.528280695947	2
36	5538	16.528326695947	1
36	5539	16.528326695947	0
36	5589	16.628280695947	1
36	5590	16.628280695947	2
36	5593	16.628326695947	1
36	5594	16.628326695947	0
36	5644	16.728280695947	1
36	5645	16.728280695947	2
36	5648	16.728326695947	1
36	5649	16.728326695947	0
36	5699	16.828280695947	1
36	5700	16.828280695947	2
36	5703	16.828326695947	1
36	5704	16.828326695947	0
36	5754	16.928280695947	1
36	5755	16.928280695947	2
36	5758	16.928326695947	1
36	5759	16.928326695947	0
36	5809	17.028280695947	1
36	5810	17.028280695947	2
36	5813	17.028326695947	1
36	5814	17.028326695947	0
36	5864	17.128280695947	1
36	5865	17.128280695947	2
36	5868	17.128326695947	1
36	5869	17.128326695947	0
36	5919	17.228280695947	1
36	5920	17.228280695947	2
36	5923	17.228326695947	1
36	5924	17.228326695947	0
36	5974	17.328280695947	1
36	5975	17.328280695947	2
36	5978	17.328326695947	1
36	5979	17.328326695947	0
36	6029	17.428280695947	1
36	6030	17.428280695947	2
36	6033	17.428326695947	1
36	6034	17.428326695947	0
36	6084	17.528280695947	1
36	6085	17.528280695947	2
36	6088	17.528326695947	1
36	6089	17.528326695947	0
36	6139	17.628280695947	1
36	6140	17.628280695947	2
36	6143	17.628326695947	1
36	6144	17.628326695947	0
36	6194	17.728280695947	1
36	6195	17.728280695947	2
36	6198	17.728326695947	1
36	6199	17.728326695947	0
36	6249	17.828280695947	1
36	6250	17.828280695947	2
36	6253	17.828326695947	1
36	6254	17.828326695947	0
36	6304	17.928280695947	1
36	6305	17.928280695947	2
36	6308	17.928326695947	1
36	6309	17.928326695947	0
36	6359	18.028280695947	1
36	6360	18.028280695947	2
36	6363	18.028326695947	1
36	6364	18.028326695947	0
36	6414	18.128280695947	1
36	6415	18.128280695947	2
36	6418	18.128326695947	1
36	6419	18.128326695947	0
36	6469	18.228280695947	1
36	6470	18.228280695947	2
36	6473	18.228326695947	1
36	6474	18.228326695947	0
36	6524	18.328280695947	1
36	6525	18.328280695947	2
36	6528	18.328326695947	1
36	6529	18.328326695947	0
36	6579	18.428280695947	1
36	6580	18.428280695947	2
36	6583	18.428326695947	1
36	6584	18.428326695947	0
36	6634	18.528280695947	1
36	6635	18.528280695947	2
36	6638	18.528326695947	1
36	6639	18.528326695947	0
36	6689	18.628280695947	1
36	6690	18.628280695947	2
36	6693	18.628326695947	1
36	6694	18.628326695947	0
36	6744	18.728280695947	1
36	6745	18.728280695947	2
36	6748	18.728326695947	1
36	6749	18.728326695947	0
36	6799	18.828280695947	1
36	6800	18.828280695947	2
36	6803	18.828326695947	1
36	6804	18.828326695947	0
36	6854	18.928280695947	1
36	6855	18.928280695947	2
36	6858	18.928326695947	1
36	6859	18.928326695947	0
36	6909	19.028280695947	1
36	6910	19.028280695947	2
36	6913	19.028326695947	1
36	6914	19.028326695947	0
36	6964	19.128280695947	1
36	6965	19.128280695947	2
36	6968	19.128326695947	1
36	6969	19.128326695947	0
36	7019	19.228280695947	1
36	7020	19.228280695947	2
36	7023	19.228326695947	1
36	7024	19.228326695947	0
36	7074	19.328280695947	1
36	7075	19.328280695947	2
36	7078	19.328326695947	1
36	7079	19.328326695947	0
36	7129	19.428280695947	1
36	7130	19.428280695947	2
36	7133	19.428326695947	1
36	7134	19.428326695947	0
36	7184	19.528280695947	1
36	7185	19.528280695947	2
36	7188	19.528326695947	1
36	7189	19.528326695947	0
36	7239	19.628280695947	1
36	7240	19.628280695947	2
36	7243	19.628326695947	1
36	7244	19.628326695947	0
36	7294	19.728280695947	1
36	7295	19.728280695947	2
36	7298	19.728326695947	1
36	7299	19.728326695947	0
36	7349	19.828280695947	1
36	7350	19.828280695947	2
36	7353	19.828326695947	1
36	7354	19.828326695947	0
36	7404	19.928280695947	1
36	7405	19.928280695947	2
36	7408	19.928326695947	1
36	7409	19.928326695947	0
36	7459	20.028280695947	1
36	7460	20.028280695947	2
36	7463	20.028326695947	1
36	7464	20.028326695947	0
36	7514	20.128280695947	1
36	7515	20.128280695947	2
36	7518	20.128326695947	1
36	7519	20.128326695947	0
36	7569	20.228280695947	1
36	7570	20.228280695947	2
36	7573	20.228326695947	1
36	7574	20.228326695947	0
36	7624	20.328280695947	1
36	7625	20.328280695947	2
36	7628	20.328326695947	1
36	7629	20.328326695947	0
36	7679	20.428280695947	1
36	7680	20.428280695947	2
36	7683	20.428326695947	1
36	7684	20.428326695947	0
36	7734	20.528280695947	1
36	7735	20.528280695947	2
36	7738	20.528326695947	1
36	7739	20.528326695947	0
36	7789	20.628280695947	1
36	7790	20.628280695947	2
36	7793	20.628326695947	1
36	7794	20.628326695947	0
36	7844	20.728280695947	1
36	7845	20.728280695947	2
36	7848	20.728326695947	1
36	7849	20.728326695947	0
36	7899	20.828280695947	1
36	7900	20.828280695947	2
36	7903	20.828326695947	1
36	7904	20.828326695947	0
36	7954	20.928280695947	1
36	7955	20.928280695947	2
36	7958	20.928326695947	1
36	7959	20.928326695947	0
36	8009	21.028280695947	1
36	8010	21.028280695947	2
36	8013	21.028326695947	1
36	8014	21.028326695947	0
36	8064	21.128280695947	1
36	8065	21.128280695947	2
36	8068	21.128326695947	1
36	8069	21.128326695947	0
37	2042	10.154927654265	48
37	2056	10.158248067204	48
37	2097	10.25492765889	48
37	2111	10.258248070512	48
37	2152	10.354927662158	48
37	2166	10.358248073818	48
37	2207	10.454927664892	48
37	2221	10.458248077104	48
37	2262	10.554927667402	48
37	2276	10.558248080392	48
37	2317	10.65492766817	48
37	2331	10.658248083641	48
37	2372	10.754927668957	48
37	2386	10.758248086874	48
37	2427	10.854927669748	48
37	2441	10.858248090077	48
37	2482	10.95492766975	48
37	2496	10.958248093287	48
37	2537	11.054927669724	48
37	2551	11.058248096478	48
37	2592	11.154927669692	48
37	2606	11.158248099639	48
37	2647	11.25492766967	48
37	2661	11.258248102828	48
37	2702	11.354927669655	48
37	2716	11.35824810604	48
37	2757	11.454927669637	48
37	2771	11.458248109227	48
37	2812	11.554927669625	48
37	2826	11.558248112424	48
37	2867	11.654927669597	48
37	2881	11.658248115598	48
37	2922	11.754927669575	48
37	2936	11.758248118752	48
37	2977	11.854927669571	48
37	2991	11.858248121928	48
37	3032	11.954927669578	48
37	3046	11.958248125124	48
37	3087	12.054927669612	48
37	3101	12.058248128349	48
37	3142	12.154927669671	48
37	3156	12.158248131582	48
37	3197	12.254927669743	48
37	3211	12.258248134748	48
37	3252	12.354927669827	48
37	3266	12.358248137848	48
37	3307	12.454927669953	48
37	3321	12.458248140888	48
37	3362	12.554927670083	48
37	3376	12.55824814388	48
37	3417	12.654927670233	48
37	3431	12.658248146793	48
37	3472	12.754927670421	48
37	3486	12.758248149681	48
37	3527	12.854927670609	48
37	3541	12.858248152496	48
37	3582	12.954927670807	48
37	3596	12.958248155214	48
37	3637	13.05492767104	48
37	3654	13.058248157908	48
37	3692	13.154927671289	48
37	3709	13.158248160524	48
37	3747	13.254927671563	48
37	3764	13.258248163077	48
37	3802	13.354927671852	48
37	3819	13.358248165541	48
37	3857	13.454927672159	48
37	3874	13.45824816796	48
37	3912	13.554927672491	48
37	3929	13.558248170304	48
37	3967	13.654927672854	48
37	3984	13.65824817258	48
37	4022	13.754927673222	48
37	4039	13.758248174774	48
37	4077	13.854927673632	48
37	4094	13.85824817692	48
37	4132	13.954927674076	48
37	4149	13.958248179015	48
37	4187	14.054927674558	48
37	4204	14.058248181051	48
37	4242	14.15492767507	48
37	4259	14.158248182995	48
37	4297	14.254927675607	48
37	4314	14.258248184878	48
37	4352	14.35492767621	48
37	4369	14.358248186712	48
37	4407	14.454927676831	48
37	4424	14.458248188492	48
37	4462	14.554927677491	48
37	4476	14.558248190167	48
37	4517	14.654927678186	48
37	4531	14.658248192147	48
37	4572	14.754927678899	48
37	4586	14.758248194392	48
37	4627	14.854927679673	48
37	4641	14.858248196592	48
37	4682	14.954927680492	48
37	4696	14.958248198514	48
37	4737	15.054927681357	48
37	4751	15.058248199918	48
37	4792	15.154927682261	48
37	4806	15.158248201325	48
37	4847	15.254927683228	48
37	4861	15.258248201462	48
37	4902	15.35492768427	48
37	4916	15.358248201132	48
37	4957	15.454927685353	48
37	4971	15.458248200555	48
37	5012	15.554927686478	48
37	5026	15.558248198381	48
37	5067	15.654927687675	48
37	5081	15.65824819629	48
37	5122	15.754927688915	48
37	5136	15.758248194274	48
37	5177	15.8549276902	48
37	5191	15.858248191481	48
37	5232	15.954927691564	48
37	5246	15.958248188732	48
37	5287	16.054927692986	48
37	5301	16.058248186077	48
37	5342	16.154927694472	48
37	5356	16.158248183472	48
37	5397	16.254927695992	48
37	5411	16.258248180944	48
37	5452	16.354927697592	48
37	5466	16.358248178529	48
37	5507	16.454927699254	48
37	5521	16.458248176197	48
37	5562	16.554927700998	48
37	5576	16.558248173979	48
37	5617	16.654927702818	48
37	5631	16.658248171871	48
37	5672	16.754927704698	48
37	5686	16.758248169885	48
37	5727	16.854927706623	48
37	5741	16.858248168017	48
37	5782	16.954927708629	48
37	5796	16.958248166314	48
37	5837	17.054927710712	48
37	5851	17.058248164767	48
37	5892	17.154927712948	48
37	5906	17.158248163428	48
37	5947	17.254927715605	48
37	5961	17.258248162295	48
37	6002	17.354927718406	48
37	6016	17.358248161388	48
37	6057	17.45492772133	48
37	6071	17.458248160708	48
37	6112	17.554927723022	48
37	6126	17.558248160261	48
37	6167	17.654927724899	48
37	6181	17.658248160037	48
37	6222	17.754927726011	48
37	6236	17.758248160063	48
37	6277	17.854927725971	48
37	6291	17.858248160312	48
37	6332	17.954927726178	48
37	6346	17.958248160802	48
37	6387	18.054927724915	48
37	6401	18.058248161545	48
37	6442	18.154927723519	48
37	6456	18.158248162486	48
37	6497	18.254927722384	48
37	6511	18.258248163638	48
37	6552	18.35492772108	48
37	6566	18.358248165036	48
37	6607	18.454927719795	48
37	6621	18.458248166667	48
37	6662	18.554927718741	48
37	6676	18.558248168509	48
37	6717	18.654927717914	48
37	6731	18.65824817052	48
37	6772	18.754927717317	48
37	6786	18.758248172765	48
37	6827	18.85492771695	48
37	6841	18.858248175166	48
37	6882	18.954927716818	48
37	6899	18.958248177767	48
37	6937	19.054927716917	48
37	6954	19.058248180546	48
37	6992	19.154927717248	48
37	7009	19.158248183488	48
37	7047	19.25492771781	48
37	7064	19.258248186605	48
37	7102	19.354927718601	48
37	7119	19.358248189878	48
37	7157	19.454927719627	48
37	7174	19.458248193313	48
37	7212	19.554927720875	48
37	7229	19.558248196871	48
37	7267	19.654927722239	48
37	7284	19.658248200396	48
37	7322	19.754927723331	48
37	7339	19.758248203378	48
37	7377	19.854927724685	48
37	7394	19.858248206501	48
37	7432	19.954927726228	48
37	7449	19.958248209707	48
37	7487	20.054927725981	48
37	7504	20.058248211151	48
37	7542	20.154927725994	48
37	7559	20.158248212716	48
37	7597	20.254927725229	48
37	7614	20.2582482136	48
37	7652	20.354927723326	48
37	7669	20.358248213494	48
37	7707	20.454927721633	48
37	7724	20.458248213443	48
37	7762	20.554927718956	48
37	7779	20.558248212861	48
37	7817	20.654927716138	48
37	7834	20.658248212124	48
37	7872	20.754927713483	48
37	7889	20.758248211393	48
37	7927	20.854927711171	48
37	7944	20.858248211157	48
37	7982	20.954927709075	48
37	7999	20.958248211169	48
37	8037	21.054927707077	48
37	8054	21.058248211172	48
38	2042	10.154927654265	48
38	2056	10.158248067204	48
38	2097	10.25492765889	48
38	2111	10.258248070512	48
38	2152	10.354927662158	48
38	2166	10.358248073818	48
38	2207	10.454927664892	48
38	2221	10.458248077104	48
38	2262	10.554927667402	48
38	2276	10.558248080392	48
38	2317	10.65492766817	48
38	2331	10.658248083641	48
38	2372	10.754927668957	48
38	2386	10.758248086874	48
38	2427	10.854927669748	48
38	2441	10.858248090077	48
38	2482	10.95492766975	48
38	2496	10.958248093287	48
38	2537	11.054927669724	48
38	2551	11.058248096478	48
38	2592	11.154927669692	48
38	2606	11.158248099639	48
38	2647	11.25492766967	48
38	2661	11.258248102828	48
38	2702	11.354927669655	48
38	2716	11.35824810604	48
38	2757	11.454927669637	48
38	2771	11.458248109227	48
38	2812	11.554927669625	48
38	2826	11.558248112424	48
38	2867	11.654927669597	48
38	2881	11.658248115598	48
38	2922	11.754927669575	48
38	2936	11.758248118752	48
38	2977	11.854927669571	48
38	2991	11.858248121928	48
38	3032	11.954927669578	48
38	3046	11.958248125124	48
38	3087	12.054927669612	48
38	3101	12.058248128349	48
38	3142	12.154927669671	48
38	3156	12.158248131582	48
38	3197	12.254927669743	48
38	3211	12.258248134748	48
38	3252	12.354927669827	48
38	3266	12.358248137848	48
38	3307	12.454927669953	48
38	3321	12.458248140888	48
38	3362	12.554927670083	48
38	3376	12.55824814388	48
38	3417	12.654927670233	48
38	3431	12.658248146793	48
38	3472	12.754927670421	48
38	3486	12.758248149681	48
38	3527	12.854927670609	48
38	3541	12.858248152496	48
38	3582	12.954927670807	48
38	3596	12.958248155214	48
38	3637	13.05492767104	48
38	3654	13.058248157908	48
38	3692	13.154927671289	48
38	3709	13.158248160524	48
38	3747	13.254927671563	48
38	3764	13.258248163077	48
38	3802	13.354927671852	48
38	3819	13.358248165541	48
38	3857	13.454927672159	48
38	3874	13.45824816796	48
38	3912	13.554927672491	48
38	3929	13.558248170304	48
38	3967	13.654927672854	48
38	3984	13.65824817258	48
38	4022	13.754927673222	48
38	4039	13.758248174774	48
38	4077	13.854927673632	48
38	4094	13.85824817692	48
38	4132	13.954927674076	48
38	4149	13.958248179015	48
38	4187	14.054927674558	48
38	4204	14.058248181051	48
38	4242	14.15492767507	48
38	4259	14.158248182995	48
38	4297	14.254927675607	48
38	4314	14.258248184878	48
38	4352	14.35492767621	48
38	4369	14.358248186712	48
38	4407	14.454927676831	48
38	4424	14.458248188492	48
38	4462	14.554927677491	48
38	4476	14.558248190167	48
38	4517	14.654927678186	48
38	4531	14.658248192147	48
38	4572	14.754927678899	48
38	4586	14.758248194392	48
38	4627	14.854927679673	48
38	4641	14.858248196592	48
38	4682	14.954927680492	48
38	4696	14.958248198514	48
38	4737	15.054927681357	48
38	4751	15.058248199918	48
38	4792	15.154927682261	48
38	4806	15.158248201325	48
38	4847	15.254927683228	48
38	4861	15.258248201462	48
38	4902	15.35492768427	48
38	4916	15.358248201132	48
38	4957	15.454927685353	48
38	4971	15.458248200555	48
38	5012	15.554927686478	48
38	5026	15.558248198381	48
38	5067	15.654927687675	48
38	5081	15.65824819629	48
38	5122	15.754927688915	48
38	5136	15.758248194274	48
38	5177	15.8549276902	48
38	5191	15.858248191481	48
38	5232	15.954927691564	48
38	5246	15.958248188732	48
38	5287	16.054927692986	48
38	5301	16.058248186077	48
38	5342	16.154927694472	48
38	5356	16.158248183472	48
38	5397	16.254927695992	48
38	5411	16.258248180944	48
38	5452	16.354927697592	48
38	5466	16.358248178529	48
38	5507	16.454927699254	48
38	5521	16.458248176197	48
38	5562	16.554927700998	48
38	5576	16.558248173979	48
38	5617	16.654927702818	48
38	5631	16.658248171871	48
38	5672	16.754927704698	48
38	5686	16.758248169885	48
38	5727	16.854927706623	48
38	5741	16.858248168017	48
38	5782	16.954927708629	48
38	5796	16.958248166314	48
38	5837	17.054927710712	48
38	5851	17.058248164767	48
38	5892	17.154927712948	48
38	5906	17.158248163428	48
38	5947	17.254927715605	48
38	5961	17.258248162295	48
38	6002	17.354927718406	48
38	6016	17.358248161388	48
38	6057	17.45492772133	48
38	6071	17.458248160708	48
38	6112	17.554927723022	48
38	6126	17.558248160261	48
38	6167	17.654927724899	48
38	6181	17.658248160037	48
38	6222	17.754927726011	48
38	6236	17.758248160063	48
38	6277	17.854927725971	48
38	6291	17.858248160312	48
38	6332	17.954927726178	48
38	6346	17.958248160802	48
38	6387	18.054927724915	48
38	6401	18.058248161545	48
38	6442	18.154927723519	48
38	6456	18.158248162486	48
38	6497	18.254927722384	48
38	6511	18.258248163638	48
38	6552	18.35492772108	48
38	6566	18.358248165036	48
38	6607	18.454927719795	48
38	6621	18.458248166667	48
38	6662	18.554927718741	48
38	6676	18.558248168509	48
38	6717	18.654927717914	48
38	6731	18.65824817052	48
38	6772	18.754927717317	48
38	6786	18.758248172765	48
38	6827	18.85492771695	48
38	6841	18.858248175166	48
38	6882	18.954927716818	48
38	6899	18.958248177767	48
38	6937	19.054927716917	48
38	6954	19.058248180546	48
38	6992	19.154927717248	48
38	7009	19.158248183488	48
38	7047	19.25492771781	48
38	7064	19.258248186605	48
38	7102	19.354927718601	48
38	7119	19.358248189878	48
38	7157	19.454927719627	48
38	7174	19.458248193313	48
38	7212	19.554927720875	48
38	7229	19.558248196871	48
38	7267	19.654927722239	48
38	7284	19.658248200396	48
38	7322	19.754927723331	48
38	7339	19.758248203378	48
38	7377	19.854927724685	48
38	7394	19.858248206501	48
38	7432	19.954927726228	48
38	7449	19.958248209707	48
38	7487	20.054927725981	48
38	7504	20.058248211151	48
38	7542	20.154927725994	48
38	7559	20.158248212716	48
38	7597	20.254927725229	48
38	7614	20.2582482136	48
38	7652	20.354927723326	48
38	7669	20.358248213494	48
38	7707	20.454927721633	48
38	7724	20.458248213443	48
38	7762	20.554927718956	48
38	7779	20.558248212861	48
38	7817	20.654927716138	48
38	7834	20.658248212124	48
38	7872	20.754927713483	48
38	7889	20.758248211393	48
38	7927	20.854927711171	48
38	7944	20.858248211157	48
38	7982	20.954927709075	48
38	7999	20.958248211169	48
38	8037	21.054927707077	48
38	8054	21.058248211172	48

