version 2
run General-0-20200704-21:11:09-2592
attr configname General
attr datetime 20200704-21:11:09
attr experiment General
attr inifile omnetpp.ini
attr iterationvars ""
attr iterationvarsf ""
attr measurement ""
attr network Scenario
attr processid 2592
attr repetition 0
attr replication #0
attr resultdir results
attr runnumber 0
attr seedset 0
param Scenario.node[*].wlan[0].mgmtType "\"Ieee80211MgmtAP\""
param Scenario.node[*].wlan[0].bitrate 6Mbps
param Scenario.node[*].wlan[0].radio.transmitter.power 2mW
param Scenario.rsu[*].wlan[0].mgmtType "\"Ieee80211MgmtAP\""
param Scenario.rsu[*].wlan[0].bitrate 6Mbps
param Scenario.rsu[*].wlan[0].radio.transmitter.power 2mW
param Scenario.node[*].ac_wlan.interfaces "\"wlan0\""
param Scenario.rsu[*].ac_wlan.interfaces "\"wlan0\""
param Scenario.node[*].mobilityType "\"VeinsInetMobility\""
param Scenario.node[*].mobility.constraintAreaMinX 0m
param Scenario.node[*].mobility.constraintAreaMinY 0m
param Scenario.node[*].mobility.constraintAreaMinZ 0m
param Scenario.node[*].mobility.constraintAreaMaxX 1000m
param Scenario.node[*].mobility.constraintAreaMaxY 1000m
param Scenario.node[*].mobility.constraintAreaMaxZ 0m
param Scenario.rsu[*].mobilityType "\"LinearMobility\""
param Scenario.rsu[0].mobility.initialX 200m
param Scenario.rsu[0].mobility.initialY 200m
param Scenario.rsu[0].mobility.initialZ 2m
param Scenario.rsu[0].mobility.speed 2mps
param Scenario.rsu[0].mobility.angle 0
param Scenario.rsu[1].mobility.initialX 100m
param Scenario.rsu[1].mobility.initialY 100m
param Scenario.rsu[1].mobility.initialZ 2m
param Scenario.rsu[1].mobility.speed 5mps
param Scenario.rsu[1].mobility.angle 0
param Scenario.manager.updateInterval 0.1s
param Scenario.manager.host "\"localhost\""
param Scenario.manager.port 9999
param Scenario.manager.autoShutdown true
param Scenario.manager.launchConfig "xmldoc(\"square.launchd.xml\")"
param Scenario.manager.moduleType "\"org.car2x.veins.subprojects.veins_inet.example.Car\""
param Scenario.manager.rsuType "\"fyp.rsuWithSingleSide.rsu\""

vector 0 Scenario.rsu[0].wlan[0].radio radioMode:vector ETV
attr interpolationmode sample-hold
attr source radioModeChanged
attr title "Radio mode, vector"
vector 1 Scenario.rsu[0].wlan[0].radio radioChannel:vector ETV
attr interpolationmode sample-hold
attr source radioChannelChanged
attr title "Radio channel, vector"
vector 2 Scenario.rsu[1].wlan[0].radio radioMode:vector ETV
attr interpolationmode sample-hold
attr source radioModeChanged
attr title "Radio mode, vector"
vector 3 Scenario.rsu[1].wlan[0].radio radioChannel:vector ETV
attr interpolationmode sample-hold
attr source radioChannelChanged
attr title "Radio channel, vector"
vector 4 Scenario.rsu[2].wlan[0].radio radioMode:vector ETV
attr interpolationmode sample-hold
attr source radioModeChanged
attr title "Radio mode, vector"
vector 5 Scenario.rsu[2].wlan[0].radio radioChannel:vector ETV
attr interpolationmode sample-hold
attr source radioChannelChanged
attr title "Radio channel, vector"
vector 6 Scenario.rsu[0].wlan[0].radio receptionState:vector ETV
attr interpolationmode sample-hold
attr source receptionStateChanged
attr title "Radio reception state, vector"
vector 7 Scenario.rsu[1].wlan[0].radio receptionState:vector ETV
attr interpolationmode sample-hold
attr source receptionStateChanged
attr title "Radio reception state, vector"
vector 8 Scenario.rsu[2].wlan[0].radio receptionState:vector ETV
attr interpolationmode sample-hold
attr source receptionStateChanged
attr title "Radio reception state, vector"
vector 9 Scenario.rsu[0].wlan[0].mac.dcf.channelAccess.contention state:vector ETV
attr interpolationmode none
attr source stateChanged
attr title "contention state, vector"
vector 10 Scenario.rsu[0].wlan[0].mac.hcf.edca.edcaf[0].contention state:vector ETV
attr interpolationmode none
attr source stateChanged
attr title "contention state, vector"
vector 11 Scenario.rsu[0].wlan[0].mac.hcf.edca.edcaf[1].contention state:vector ETV
attr interpolationmode none
attr source stateChanged
attr title "contention state, vector"
vector 12 Scenario.rsu[0].wlan[0].mac.hcf.edca.edcaf[2].contention state:vector ETV
attr interpolationmode none
attr source stateChanged
attr title "contention state, vector"
vector 13 Scenario.rsu[0].wlan[0].mac.hcf.edca.edcaf[3].contention state:vector ETV
attr interpolationmode none
attr source stateChanged
attr title "contention state, vector"
vector 14 Scenario.rsu[1].wlan[0].mac.dcf.channelAccess.contention state:vector ETV
attr interpolationmode none
attr source stateChanged
attr title "contention state, vector"
vector 15 Scenario.rsu[1].wlan[0].mac.hcf.edca.edcaf[0].contention state:vector ETV
attr interpolationmode none
attr source stateChanged
attr title "contention state, vector"
vector 16 Scenario.rsu[1].wlan[0].mac.hcf.edca.edcaf[1].contention state:vector ETV
attr interpolationmode none
attr source stateChanged
attr title "contention state, vector"
vector 17 Scenario.rsu[1].wlan[0].mac.hcf.edca.edcaf[2].contention state:vector ETV
attr interpolationmode none
attr source stateChanged
attr title "contention state, vector"
vector 18 Scenario.rsu[1].wlan[0].mac.hcf.edca.edcaf[3].contention state:vector ETV
attr interpolationmode none
attr source stateChanged
attr title "contention state, vector"
vector 19 Scenario.rsu[2].wlan[0].mac.dcf.channelAccess.contention state:vector ETV
attr interpolationmode none
attr source stateChanged
attr title "contention state, vector"
vector 20 Scenario.rsu[2].wlan[0].mac.hcf.edca.edcaf[0].contention state:vector ETV
attr interpolationmode none
attr source stateChanged
attr title "contention state, vector"
vector 21 Scenario.rsu[2].wlan[0].mac.hcf.edca.edcaf[1].contention state:vector ETV
attr interpolationmode none
attr source stateChanged
attr title "contention state, vector"
vector 22 Scenario.rsu[2].wlan[0].mac.hcf.edca.edcaf[2].contention state:vector ETV
attr interpolationmode none
attr source stateChanged
attr title "contention state, vector"
vector 23 Scenario.rsu[2].wlan[0].mac.hcf.edca.edcaf[3].contention state:vector ETV
attr interpolationmode none
attr source stateChanged
attr title "contention state, vector"
vector 24 Scenario.rsu[2].wlan[0].mac rcvdPkFromHL:vector(packetBytes) ETV
attr interpolationmode none
attr source packetReceivedFromUpper
attr title "packets received from higher layer, vector(packetBytes)"
vector 25 Scenario.rsu[2].wlan[0].mac sentDownPk:vector(packetBytes) ETV
attr interpolationmode none
attr source packetSentToLower
attr title "packets sent to lower layer, vector(packetBytes)"
vector 26 Scenario.rsu[2].wlan[0].radio transmissionState:vector ETV
attr interpolationmode sample-hold
attr source transmissionStateChanged
attr title "Radio transmission state, vector"
vector 27 Scenario.rsu[0].wlan[0].mac rcvdPkFromLL:vector(packetBytes) ETV
attr interpolationmode none
attr source packetReceivedFromLower
attr title "packets received from lower layer, vector(packetBytes)"
vector 28 Scenario.rsu[0].wlan[0].mac passedUpPk:vector(packetBytes) ETV
attr interpolationmode none
attr source packetSentToUpper
attr title "packets passed to higher layer, vector(packetBytes)"
vector 29 Scenario.rsu[1].wlan[0].mac rcvdPkFromLL:vector(packetBytes) ETV
attr interpolationmode none
attr source packetReceivedFromLower
attr title "packets received from lower layer, vector(packetBytes)"
vector 30 Scenario.rsu[1].wlan[0].mac passedUpPk:vector(packetBytes) ETV
attr interpolationmode none
attr source packetSentToUpper
attr title "packets passed to higher layer, vector(packetBytes)"
vector 31 Scenario.rsu[0].wlan[0].mac rcvdPkFromHL:vector(packetBytes) ETV
attr interpolationmode none
attr source packetReceivedFromUpper
attr title "packets received from higher layer, vector(packetBytes)"
vector 32 Scenario.rsu[0].wlan[0].mac sentDownPk:vector(packetBytes) ETV
attr interpolationmode none
attr source packetSentToLower
attr title "packets sent to lower layer, vector(packetBytes)"
vector 33 Scenario.rsu[0].wlan[0].radio transmissionState:vector ETV
attr interpolationmode sample-hold
attr source transmissionStateChanged
attr title "Radio transmission state, vector"
vector 34 Scenario.rsu[2].wlan[0].mac rcvdPkFromLL:vector(packetBytes) ETV
attr interpolationmode none
attr source packetReceivedFromLower
attr title "packets received from lower layer, vector(packetBytes)"
vector 35 Scenario.rsu[2].wlan[0].mac passedUpPk:vector(packetBytes) ETV
attr interpolationmode none
attr source packetSentToUpper
attr title "packets passed to higher layer, vector(packetBytes)"
vector 36 Scenario.rsu[1].wlan[0].mac rcvdPkFromHL:vector(packetBytes) ETV
attr interpolationmode none
attr source packetReceivedFromUpper
attr title "packets received from higher layer, vector(packetBytes)"
vector 37 Scenario.rsu[1].wlan[0].mac sentDownPk:vector(packetBytes) ETV
attr interpolationmode none
attr source packetSentToLower
attr title "packets sent to lower layer, vector(packetBytes)"
vector 38 Scenario.rsu[1].wlan[0].radio transmissionState:vector ETV
attr interpolationmode sample-hold
attr source transmissionStateChanged
attr title "Radio transmission state, vector"
vector 39 Scenario.node[0].wlan[0].radio radioMode:vector ETV
attr interpolationmode sample-hold
attr source radioModeChanged
attr title "Radio mode, vector"
vector 40 Scenario.node[0].wlan[0].radio radioChannel:vector ETV
attr interpolationmode sample-hold
attr source radioChannelChanged
attr title "Radio channel, vector"
vector 41 Scenario.node[0].wlan[0].radio receptionState:vector ETV
attr interpolationmode sample-hold
attr source receptionStateChanged
attr title "Radio reception state, vector"
vector 42 Scenario.node[0].wlan[0].mac.dcf.channelAccess.contention state:vector ETV
attr interpolationmode none
attr source stateChanged
attr title "contention state, vector"
vector 43 Scenario.node[0].wlan[0].mac.hcf.edca.edcaf[0].contention state:vector ETV
attr interpolationmode none
attr source stateChanged
attr title "contention state, vector"
vector 44 Scenario.node[0].wlan[0].mac.hcf.edca.edcaf[1].contention state:vector ETV
attr interpolationmode none
attr source stateChanged
attr title "contention state, vector"
vector 45 Scenario.node[0].wlan[0].mac.hcf.edca.edcaf[2].contention state:vector ETV
attr interpolationmode none
attr source stateChanged
attr title "contention state, vector"
vector 46 Scenario.node[0].wlan[0].mac.hcf.edca.edcaf[3].contention state:vector ETV
attr interpolationmode none
attr source stateChanged
attr title "contention state, vector"
vector 47 Scenario.node[0].wlan[0].mac rcvdPkFromLL:vector(packetBytes) ETV
attr interpolationmode none
attr source packetReceivedFromLower
attr title "packets received from lower layer, vector(packetBytes)"
vector 48 Scenario.node[0].wlan[0].mac passedUpPk:vector(packetBytes) ETV
attr interpolationmode none
attr source packetSentToUpper
attr title "packets passed to higher layer, vector(packetBytes)"
vector 49 Scenario.node[0].wlan[0].mac rcvdPkFromHL:vector(packetBytes) ETV
attr interpolationmode none
attr source packetReceivedFromUpper
attr title "packets received from higher layer, vector(packetBytes)"
vector 50 Scenario.node[0].wlan[0].mac sentDownPk:vector(packetBytes) ETV
attr interpolationmode none
attr source packetSentToLower
attr title "packets sent to lower layer, vector(packetBytes)"
vector 51 Scenario.node[0].wlan[0].radio transmissionState:vector ETV
attr interpolationmode sample-hold
attr source transmissionStateChanged
attr title "Radio transmission state, vector"
vector 52 Scenario.node[1].wlan[0].radio radioMode:vector ETV
attr interpolationmode sample-hold
attr source radioModeChanged
attr title "Radio mode, vector"
vector 53 Scenario.node[1].wlan[0].radio radioChannel:vector ETV
attr interpolationmode sample-hold
attr source radioChannelChanged
attr title "Radio channel, vector"
vector 54 Scenario.node[1].wlan[0].radio receptionState:vector ETV
attr interpolationmode sample-hold
attr source receptionStateChanged
attr title "Radio reception state, vector"
vector 55 Scenario.node[1].wlan[0].mac.dcf.channelAccess.contention state:vector ETV
attr interpolationmode none
attr source stateChanged
attr title "contention state, vector"
vector 56 Scenario.node[1].wlan[0].mac.hcf.edca.edcaf[0].contention state:vector ETV
attr interpolationmode none
attr source stateChanged
attr title "contention state, vector"
vector 57 Scenario.node[1].wlan[0].mac.hcf.edca.edcaf[1].contention state:vector ETV
attr interpolationmode none
attr source stateChanged
attr title "contention state, vector"
vector 58 Scenario.node[1].wlan[0].mac.hcf.edca.edcaf[2].contention state:vector ETV
attr interpolationmode none
attr source stateChanged
attr title "contention state, vector"
vector 59 Scenario.node[1].wlan[0].mac.hcf.edca.edcaf[3].contention state:vector ETV
attr interpolationmode none
attr source stateChanged
attr title "contention state, vector"
vector 60 Scenario.node[1].wlan[0].mac rcvdPkFromHL:vector(packetBytes) ETV
attr interpolationmode none
attr source packetReceivedFromUpper
attr title "packets received from higher layer, vector(packetBytes)"
vector 61 Scenario.node[1].wlan[0].mac sentDownPk:vector(packetBytes) ETV
attr interpolationmode none
attr source packetSentToLower
attr title "packets sent to lower layer, vector(packetBytes)"
vector 62 Scenario.node[1].wlan[0].radio transmissionState:vector ETV
attr interpolationmode sample-hold
attr source transmissionStateChanged
attr title "Radio transmission state, vector"
vector 63 Scenario.node[1].wlan[0].mac rcvdPkFromLL:vector(packetBytes) ETV
attr interpolationmode none
attr source packetReceivedFromLower
attr title "packets received from lower layer, vector(packetBytes)"
vector 64 Scenario.node[1].wlan[0].mac passedUpPk:vector(packetBytes) ETV
attr interpolationmode none
attr source packetSentToUpper
attr title "packets passed to higher layer, vector(packetBytes)"
0	0	0	0
0	0	0	2
0	30	0.060276337038	3
0	35	0.060322337038	2
0	93	0.160276337038	3
0	99	0.160322337038	2
0	184	0.260276337038	3
0	190	0.260322337038	2
0	275	0.360276337038	3
0	281	0.360322337038	2
0	366	0.460276337038	3
0	372	0.460322337038	2
0	457	0.560276337038	3
0	463	0.560322337038	2
0	548	0.660276337038	3
0	554	0.660322337038	2
0	639	0.760276337038	3
0	645	0.760322337038	2
0	730	0.860276337038	3
0	736	0.860322337038	2
0	821	0.960276337038	3
0	827	0.960322337038	2
0	912	1.060276337038	3
0	918	1.060322337038	2
0	1003	1.160276337038	3
0	1009	1.160322337038	2
0	1094	1.260276337038	3
0	1100	1.260322337038	2
0	1185	1.360276337038	3
0	1191	1.360322337038	2
0	1276	1.460276337038	3
0	1282	1.460322337038	2
0	1367	1.560276337038	3
0	1373	1.560322337038	2
0	1458	1.660276337038	3
0	1464	1.660322337038	2
0	1549	1.760276337038	3
0	1555	1.760322337038	2
0	1640	1.860276337038	3
0	1646	1.860322337038	2
0	1731	1.960276337038	3
0	1737	1.960322337038	2
0	1822	2.060276337038	3
0	1828	2.060322337038	2
0	1913	2.160276337038	3
0	1919	2.160322337038	2
0	2004	2.260276337038	3
0	2010	2.260322337038	2
0	2095	2.360276337038	3
0	2101	2.360322337038	2
0	2186	2.460276337038	3
0	2192	2.460322337038	2
0	2277	2.560276337038	3
0	2283	2.560322337038	2
0	2368	2.660276337038	3
0	2374	2.660322337038	2
0	2459	2.760276337038	3
0	2465	2.760322337038	2
0	2550	2.860276337038	3
0	2556	2.860322337038	2
0	2641	2.960276337038	3
0	2647	2.960322337038	2
0	2732	3.060276337038	3
0	2738	3.060322337038	2
0	2823	3.160276337038	3
0	2829	3.160322337038	2
0	2914	3.260276337038	3
0	2920	3.260322337038	2
0	3005	3.360276337038	3
0	3011	3.360322337038	2
0	3096	3.460276337038	3
0	3102	3.460322337038	2
0	3187	3.560276337038	3
0	3193	3.560322337038	2
0	3278	3.660276337038	3
0	3284	3.660322337038	2
0	3369	3.760276337038	3
0	3375	3.760322337038	2
0	3460	3.860276337038	3
0	3466	3.860322337038	2
0	3551	3.960276337038	3
0	3557	3.960322337038	2
0	3642	4.060276337038	3
0	3648	4.060322337038	2
0	3733	4.160276337038	3
0	3739	4.160322337038	2
0	3824	4.260276337038	3
0	3830	4.260322337038	2
0	3915	4.360276337038	3
0	3921	4.360322337038	2
0	4006	4.460276337038	3
0	4012	4.460322337038	2
0	4097	4.560276337038	3
0	4103	4.560322337038	2
0	4188	4.660276337038	3
0	4194	4.660322337038	2
0	4279	4.760276337038	3
0	4285	4.760322337038	2
0	4370	4.860276337038	3
0	4376	4.860322337038	2
0	4461	4.960276337038	3
0	4467	4.960322337038	2
0	4552	5.060276337038	3
0	4558	5.060322337038	2
0	4675	5.160276337038	3
0	4682	5.160322337038	2
0	4808	5.260276337038	3
0	4815	5.260322337038	2
0	4941	5.360276337038	3
0	4948	5.360322337038	2
0	5074	5.460276337038	3
0	5081	5.460322337038	2
0	5207	5.560276337038	3
0	5214	5.560322337038	2
0	5340	5.660276337038	3
0	5347	5.660322337038	2
0	5473	5.760276337038	3
0	5480	5.760322337038	2
0	5606	5.860276337038	3
0	5613	5.860322337038	2
0	5739	5.960276337038	3
0	5746	5.960322337038	2
0	5872	6.060276337038	3
0	5879	6.060322337038	2
0	6005	6.160276337038	3
0	6012	6.160322337038	2
0	6138	6.260276337038	3
0	6145	6.260322337038	2
0	6271	6.360276337038	3
0	6278	6.360322337038	2
0	6404	6.460276337038	3
0	6411	6.460322337038	2
0	6537	6.560276337038	3
0	6544	6.560322337038	2
0	6670	6.660276337038	3
0	6677	6.660322337038	2
0	6803	6.760276337038	3
0	6810	6.760322337038	2
0	6936	6.860276337038	3
0	6943	6.860322337038	2
0	7069	6.960276337038	3
0	7076	6.960322337038	2
0	7202	7.060276337038	3
0	7209	7.060322337038	2
0	7335	7.160276337038	3
0	7342	7.160322337038	2
0	7468	7.260276337038	3
0	7475	7.260322337038	2
0	7601	7.360276337038	3
0	7608	7.360322337038	2
0	7734	7.460276337038	3
0	7741	7.460322337038	2
0	7867	7.560276337038	3
0	7874	7.560322337038	2
0	8000	7.660276337038	3
0	8007	7.660322337038	2
0	8133	7.760276337038	3
0	8140	7.760322337038	2
0	8266	7.860276337038	3
0	8273	7.860322337038	2
0	8399	7.960276337038	3
0	8406	7.960322337038	2
0	8532	8.060276337038	3
0	8539	8.060322337038	2
0	8665	8.160276337038	3
0	8672	8.160322337038	2
0	8798	8.260276337038	3
0	8805	8.260322337038	2
0	8931	8.360276337038	3
0	8938	8.360322337038	2
0	9064	8.460276337038	3
0	9071	8.460322337038	2
0	9197	8.560276337038	3
0	9204	8.560322337038	2
0	9330	8.660276337038	3
0	9337	8.660322337038	2
0	9463	8.760276337038	3
1	0	0	0
2	0	0	0
2	0	0	2
2	49	0.085794561985	3
2	54	0.085840561985	2
2	138	0.185794561985	3
2	144	0.185840561985	2
2	229	0.285794561985	3
2	235	0.285840561985	2
2	320	0.385794561985	3
2	326	0.385840561985	2
2	411	0.485794561985	3
2	417	0.485840561985	2
2	502	0.585794561985	3
2	508	0.585840561985	2
2	593	0.685794561985	3
2	599	0.685840561985	2
2	684	0.785794561985	3
2	690	0.785840561985	2
2	775	0.885794561985	3
2	781	0.885840561985	2
2	866	0.985794561985	3
2	872	0.985840561985	2
2	957	1.085794561985	3
2	963	1.085840561985	2
2	1048	1.185794561985	3
2	1054	1.185840561985	2
2	1139	1.285794561985	3
2	1145	1.285840561985	2
2	1230	1.385794561985	3
2	1236	1.385840561985	2
2	1321	1.485794561985	3
2	1327	1.485840561985	2
2	1412	1.585794561985	3
2	1418	1.585840561985	2
2	1503	1.685794561985	3
2	1509	1.685840561985	2
2	1594	1.785794561985	3
2	1600	1.785840561985	2
2	1685	1.885794561985	3
2	1691	1.885840561985	2
2	1776	1.985794561985	3
2	1782	1.985840561985	2
2	1867	2.085794561985	3
2	1873	2.085840561985	2
2	1958	2.185794561985	3
2	1964	2.185840561985	2
2	2049	2.285794561985	3
2	2055	2.285840561985	2
2	2140	2.385794561985	3
2	2146	2.385840561985	2
2	2231	2.485794561985	3
2	2237	2.485840561985	2
2	2322	2.585794561985	3
2	2328	2.585840561985	2
2	2413	2.685794561985	3
2	2419	2.685840561985	2
2	2504	2.785794561985	3
2	2510	2.785840561985	2
2	2595	2.885794561985	3
2	2601	2.885840561985	2
2	2686	2.985794561985	3
2	2692	2.985840561985	2
2	2777	3.085794561985	3
2	2783	3.085840561985	2
2	2868	3.185794561985	3
2	2874	3.185840561985	2
2	2959	3.285794561985	3
2	2965	3.285840561985	2
2	3050	3.385794561985	3
2	3056	3.385840561985	2
2	3141	3.485794561985	3
2	3147	3.485840561985	2
2	3232	3.585794561985	3
2	3238	3.585840561985	2
2	3323	3.685794561985	3
2	3329	3.685840561985	2
2	3414	3.785794561985	3
2	3420	3.785840561985	2
2	3505	3.885794561985	3
2	3511	3.885840561985	2
2	3596	3.985794561985	3
2	3602	3.985840561985	2
2	3687	4.085794561985	3
2	3693	4.085840561985	2
2	3778	4.185794561985	3
2	3784	4.185840561985	2
2	3869	4.285794561985	3
2	3875	4.285840561985	2
2	3960	4.385794561985	3
2	3966	4.385840561985	2
2	4051	4.485794561985	3
2	4057	4.485840561985	2
2	4142	4.585794561985	3
2	4148	4.585840561985	2
2	4233	4.685794561985	3
2	4239	4.685840561985	2
2	4324	4.785794561985	3
2	4330	4.785840561985	2
2	4415	4.885794561985	3
2	4421	4.885840561985	2
2	4506	4.985794561985	3
2	4512	4.985840561985	2
2	4597	5.085794561985	3
2	4603	5.085840561985	2
2	4728	5.185794561985	3
2	4735	5.185840561985	2
2	4861	5.285794561985	3
2	4868	5.285840561985	2
2	4994	5.385794561985	3
2	5001	5.385840561985	2
2	5127	5.485794561985	3
2	5134	5.485840561985	2
2	5260	5.585794561985	3
2	5267	5.585840561985	2
2	5393	5.685794561985	3
2	5400	5.685840561985	2
2	5526	5.785794561985	3
2	5533	5.785840561985	2
2	5659	5.885794561985	3
2	5666	5.885840561985	2
2	5792	5.985794561985	3
2	5799	5.985840561985	2
2	5925	6.085794561985	3
2	5932	6.085840561985	2
2	6058	6.185794561985	3
2	6065	6.185840561985	2
2	6191	6.285794561985	3
2	6198	6.285840561985	2
2	6324	6.385794561985	3
2	6331	6.385840561985	2
2	6457	6.485794561985	3
2	6464	6.485840561985	2
2	6590	6.585794561985	3
2	6597	6.585840561985	2
2	6723	6.685794561985	3
2	6730	6.685840561985	2
2	6856	6.785794561985	3
2	6863	6.785840561985	2
2	6989	6.885794561985	3
2	6996	6.885840561985	2
2	7122	6.985794561985	3
2	7129	6.985840561985	2
2	7255	7.085794561985	3
2	7262	7.085840561985	2
2	7388	7.185794561985	3
2	7395	7.185840561985	2
2	7521	7.285794561985	3
2	7528	7.285840561985	2
2	7654	7.385794561985	3
2	7661	7.385840561985	2
2	7787	7.485794561985	3
2	7794	7.485840561985	2
2	7920	7.585794561985	3
2	7927	7.585840561985	2
2	8053	7.685794561985	3
2	8060	7.685840561985	2
2	8186	7.785794561985	3
2	8193	7.785840561985	2
2	8319	7.885794561985	3
2	8326	7.885840561985	2
2	8452	7.985794561985	3
2	8459	7.985840561985	2
2	8585	8.085794561985	3
2	8592	8.085840561985	2
2	8718	8.185794561985	3
2	8725	8.185840561985	2
2	8851	8.285794561985	3
2	8858	8.285840561985	2
2	8984	8.385794561985	3
2	8991	8.385840561985	2
2	9117	8.485794561985	3
2	9124	8.485840561985	2
2	9250	8.585794561985	3
2	9257	8.585840561985	2
2	9383	8.685794561985	3
2	9390	8.685840561985	2
3	0	0	0
4	0	0	0
4	0	0	2
4	13	0.054488317738	3
4	18	0.054534317738	2
4	72	0.154488317738	3
4	78	0.154534317738	2
4	163	0.254488317738	3
4	169	0.254534317738	2
4	254	0.354488317738	3
4	260	0.354534317738	2
4	345	0.454488317738	3
4	351	0.454534317738	2
4	436	0.554488317738	3
4	442	0.554534317738	2
4	527	0.654488317738	3
4	533	0.654534317738	2
4	618	0.754488317738	3
4	624	0.754534317738	2
4	709	0.854488317738	3
4	715	0.854534317738	2
4	800	0.954488317738	3
4	806	0.954534317738	2
4	891	1.054488317738	3
4	897	1.054534317738	2
4	982	1.154488317738	3
4	988	1.154534317738	2
4	1073	1.254488317738	3
4	1079	1.254534317738	2
4	1164	1.354488317738	3
4	1170	1.354534317738	2
4	1255	1.454488317738	3
4	1261	1.454534317738	2
4	1346	1.554488317738	3
4	1352	1.554534317738	2
4	1437	1.654488317738	3
4	1443	1.654534317738	2
4	1528	1.754488317738	3
4	1534	1.754534317738	2
4	1619	1.854488317738	3
4	1625	1.854534317738	2
4	1710	1.954488317738	3
4	1716	1.954534317738	2
4	1801	2.054488317738	3
4	1807	2.054534317738	2
4	1892	2.154488317738	3
4	1898	2.154534317738	2
4	1983	2.254488317738	3
4	1989	2.254534317738	2
4	2074	2.354488317738	3
4	2080	2.354534317738	2
4	2165	2.454488317738	3
4	2171	2.454534317738	2
4	2256	2.554488317738	3
4	2262	2.554534317738	2
4	2347	2.654488317738	3
4	2353	2.654534317738	2
4	2438	2.754488317738	3
4	2444	2.754534317738	2
4	2529	2.854488317738	3
4	2535	2.854534317738	2
4	2620	2.954488317738	3
4	2626	2.954534317738	2
4	2711	3.054488317738	3
4	2717	3.054534317738	2
4	2802	3.154488317738	3
4	2808	3.154534317738	2
4	2893	3.254488317738	3
4	2899	3.254534317738	2
4	2984	3.354488317738	3
4	2990	3.354534317738	2
4	3075	3.454488317738	3
4	3081	3.454534317738	2
4	3166	3.554488317738	3
4	3172	3.554534317738	2
4	3257	3.654488317738	3
4	3263	3.654534317738	2
4	3348	3.754488317738	3
4	3354	3.754534317738	2
4	3439	3.854488317738	3
4	3445	3.854534317738	2
4	3530	3.954488317738	3
4	3536	3.954534317738	2
4	3621	4.054488317738	3
4	3627	4.054534317738	2
4	3712	4.154488317738	3
4	3718	4.154534317738	2
4	3803	4.254488317738	3
4	3809	4.254534317738	2
4	3894	4.354488317738	3
4	3900	4.354534317738	2
4	3985	4.454488317738	3
4	3991	4.454534317738	2
4	4076	4.554488317738	3
4	4082	4.554534317738	2
4	4167	4.654488317738	3
4	4173	4.654534317738	2
4	4258	4.754488317738	3
4	4264	4.754534317738	2
4	4349	4.854488317738	3
4	4355	4.854534317738	2
4	4440	4.954488317738	3
4	4446	4.954534317738	2
4	4531	5.054488317738	3
4	4537	5.054534317738	2
4	4650	5.154488317738	3
4	4657	5.154534317738	2
4	4783	5.254488317738	3
4	4790	5.254534317738	2
4	4916	5.354488317738	3
4	4923	5.354534317738	2
4	5049	5.454488317738	3
4	5056	5.454534317738	2
4	5182	5.554488317738	3
4	5189	5.554534317738	2
4	5315	5.654488317738	3
4	5322	5.654534317738	2
4	5448	5.754488317738	3
4	5455	5.754534317738	2
4	5581	5.854488317738	3
4	5588	5.854534317738	2
4	5714	5.954488317738	3
4	5721	5.954534317738	2
4	5847	6.054488317738	3
4	5854	6.054534317738	2
4	5980	6.154488317738	3
4	5987	6.154534317738	2
4	6113	6.254488317738	3
4	6120	6.254534317738	2
4	6246	6.354488317738	3
4	6253	6.354534317738	2
4	6379	6.454488317738	3
4	6386	6.454534317738	2
4	6512	6.554488317738	3
4	6519	6.554534317738	2
4	6645	6.654488317738	3
4	6652	6.654534317738	2
4	6778	6.754488317738	3
4	6785	6.754534317738	2
4	6911	6.854488317738	3
4	6918	6.854534317738	2
4	7044	6.954488317738	3
4	7051	6.954534317738	2
4	7177	7.054488317738	3
4	7184	7.054534317738	2
4	7310	7.154488317738	3
4	7317	7.154534317738	2
4	7443	7.254488317738	3
4	7450	7.254534317738	2
4	7576	7.354488317738	3
4	7583	7.354534317738	2
4	7709	7.454488317738	3
4	7716	7.454534317738	2
4	7842	7.554488317738	3
4	7849	7.554534317738	2
4	7975	7.654488317738	3
4	7982	7.654534317738	2
4	8108	7.754488317738	3
4	8115	7.754534317738	2
4	8241	7.854488317738	3
4	8248	7.854534317738	2
4	8374	7.954488317738	3
4	8381	7.954534317738	2
4	8507	8.054488317738	3
4	8514	8.054534317738	2
4	8640	8.154488317738	3
4	8647	8.154534317738	2
4	8773	8.254488317738	3
4	8780	8.254534317738	2
4	8906	8.354488317738	3
4	8913	8.354534317738	2
4	9039	8.454488317738	3
4	9046	8.454534317738	2
4	9172	8.554488317738	3
4	9179	8.554534317738	2
4	9305	8.654488317738	3
4	9312	8.654534317738	2
4	9438	8.754488317738	3
4	9445	8.754534317738	2
5	0	0	0
6	0	0	1
6	15	0.054488324419	3
6	19	0.054534324419	1
6	30	0.060276337038	0
6	35	0.060322337038	1
6	51	0.085794562844	3
6	55	0.085840562844	1
6	74	0.154488324488	3
6	79	0.154534324488	1
6	93	0.160276337038	0
6	99	0.160322337038	1
6	118	0.164589763721	3
6	125	0.164635763721	1
6	140	0.185794563844	3
6	145	0.185840563844	1
6	165	0.254488324622	3
6	170	0.254534324622	1
6	184	0.260276337038	0
6	190	0.260322337038	1
6	209	0.264589764208	3
6	216	0.264635764208	1
6	231	0.285794564845	3
6	236	0.285840564845	1
6	256	0.354488324816	3
6	261	0.354534324816	1
6	275	0.360276337038	0
6	281	0.360322337038	1
6	300	0.364589764627	3
6	307	0.364635764627	1
6	322	0.385794565846	3
6	327	0.385840565846	1
6	347	0.454488325066	3
6	352	0.454534325066	1
6	366	0.460276337038	0
6	372	0.460322337038	1
6	391	0.464589764981	3
6	398	0.464635764981	1
6	413	0.485794566846	3
6	418	0.485840566846	1
6	438	0.554488325366	3
6	443	0.554534325366	1
6	457	0.560276337038	0
6	463	0.560322337038	1
6	482	0.564589765274	3
6	489	0.564635765274	1
6	504	0.585794567847	3
6	509	0.585840567847	1
6	529	0.654488325711	3
6	534	0.654534325711	1
6	548	0.660276337038	0
6	554	0.660322337038	1
6	573	0.664589765505	3
6	580	0.664635765505	1
6	595	0.685794568848	3
6	600	0.685840568848	1
6	620	0.754488326095	3
6	625	0.754534326095	1
6	639	0.760276337038	0
6	645	0.760322337038	1
6	664	0.764589765681	3
6	671	0.764635765681	1
6	686	0.785794569848	3
6	691	0.785840569848	1
6	711	0.854488326513	3
6	716	0.854534326513	1
6	730	0.860276337038	0
6	736	0.860322337038	1
6	755	0.864589765797	3
6	762	0.864635765797	1
6	777	0.885794570849	3
6	782	0.885840570849	1
6	802	0.95448832696	3
6	807	0.95453432696	1
6	821	0.960276337038	0
6	827	0.960322337038	1
6	846	0.964589765861	3
6	853	0.964635765861	1
6	868	0.98579457185	3
6	873	0.98584057185	1
6	893	1.054488327433	3
6	898	1.054534327433	1
6	912	1.060276337038	0
6	918	1.060322337038	1
6	937	1.064589765865	3
6	944	1.064635765865	1
6	959	1.08579457285	3
6	964	1.08584057285	1
6	984	1.154488327927	3
6	989	1.154534327927	1
6	1003	1.160276337038	0
6	1009	1.160322337038	1
6	1028	1.164589765816	3
6	1035	1.164635765816	1
6	1050	1.185794573851	3
6	1055	1.185840573851	1
6	1075	1.254488328441	3
6	1080	1.254534328441	1
6	1094	1.260276337038	0
6	1100	1.260322337038	1
6	1119	1.264589765717	3
6	1126	1.264635765717	1
6	1141	1.285794574852	3
6	1146	1.285840574852	1
6	1166	1.35448832897	3
6	1171	1.35453432897	1
6	1185	1.360276337038	0
6	1191	1.360322337038	1
6	1210	1.364589765559	3
6	1217	1.364635765559	1
6	1232	1.385794575853	3
6	1237	1.385840575853	1
6	1257	1.454488329513	3
6	1262	1.454534329513	1
6	1276	1.460276337038	0
6	1282	1.460322337038	1
6	1301	1.464589765344	3
6	1308	1.464635765344	1
6	1323	1.485794576853	3
6	1328	1.485840576853	1
6	1348	1.554488330069	3
6	1353	1.554534330069	1
6	1367	1.560276337038	0
6	1373	1.560322337038	1
6	1392	1.564589765067	3
6	1399	1.564635765067	1
6	1414	1.585794577854	3
6	1419	1.585840577854	1
6	1439	1.654488330635	3
6	1444	1.654534330635	1
6	1458	1.660276337038	0
6	1464	1.660322337038	1
6	1483	1.66458976475	3
6	1490	1.66463576475	1
6	1505	1.685794578855	3
6	1510	1.685840578855	1
6	1530	1.75448833121	3
6	1535	1.75453433121	1
6	1549	1.760276337038	0
6	1555	1.760322337038	1
6	1574	1.764589764364	3
6	1581	1.764635764364	1
6	1596	1.785794579855	3
6	1601	1.785840579855	1
6	1621	1.854488331794	3
6	1626	1.854534331794	1
6	1640	1.860276337038	0
6	1646	1.860322337038	1
6	1665	1.864589763939	3
6	1672	1.864635763939	1
6	1687	1.885794580856	3
6	1692	1.885840580856	1
6	1712	1.954488332385	3
6	1717	1.954534332385	1
6	1731	1.960276337038	0
6	1737	1.960322337038	1
6	1756	1.964589763453	3
6	1763	1.964635763453	1
6	1778	1.985794581857	3
6	1783	1.985840581857	1
6	1803	2.054488332981	3
6	1808	2.054534332981	1
6	1822	2.060276337038	0
6	1828	2.060322337038	1
6	1847	2.064589762908	3
6	1854	2.064635762908	1
6	1869	2.085794582857	3
6	1874	2.085840582857	1
6	1894	2.154488333584	3
6	1899	2.154534333584	1
6	1913	2.160276337038	0
6	1919	2.160322337038	1
6	1938	2.164589762308	3
6	1945	2.164635762308	1
6	1960	2.185794583858	3
6	1965	2.185840583858	1
6	1985	2.254488334191	3
6	1990	2.254534334191	1
6	2004	2.260276337038	0
6	2010	2.260322337038	1
6	2029	2.264589761665	3
6	2036	2.264635761665	1
6	2051	2.285794584859	3
6	2056	2.285840584859	1
6	2076	2.354488334803	3
6	2081	2.354534334803	1
6	2095	2.360276337038	0
6	2101	2.360322337038	1
6	2120	2.36458976098	3
6	2127	2.36463576098	1
6	2142	2.385794585859	3
6	2147	2.385840585859	1
6	2167	2.454488335419	3
6	2172	2.454534335419	1
6	2186	2.460276337038	0
6	2192	2.460322337038	1
6	2211	2.464589760243	3
6	2218	2.464635760243	1
6	2233	2.48579458686	3
6	2238	2.48584058686	1
6	2258	2.554488336039	3
6	2263	2.554534336039	1
6	2277	2.560276337038	0
6	2283	2.560322337038	1
6	2302	2.564589759451	3
6	2309	2.564635759451	1
6	2324	2.585794587861	3
6	2329	2.585840587861	1
6	2349	2.654488336662	3
6	2354	2.654534336662	1
6	2368	2.660276337038	0
6	2374	2.660322337038	1
6	2393	2.664589758609	3
6	2400	2.664635758609	1
6	2415	2.685794588862	3
6	2420	2.685840588862	1
6	2440	2.754488337287	3
6	2445	2.754534337287	1
6	2459	2.760276337038	0
6	2465	2.760322337038	1
6	2484	2.76458975771	3
6	2491	2.76463575771	1
6	2506	2.785794589862	3
6	2511	2.785840589862	1
6	2531	2.854488337916	3
6	2536	2.854534337916	1
6	2550	2.860276337038	0
6	2556	2.860322337038	1
6	2575	2.864589756773	3
6	2582	2.864635756773	1
6	2597	2.885794590863	3
6	2602	2.885840590863	1
6	2622	2.954488338547	3
6	2627	2.954534338547	1
6	2641	2.960276337038	0
6	2647	2.960322337038	1
6	2666	2.964589755796	3
6	2673	2.964635755796	1
6	2688	2.985794591864	3
6	2693	2.985840591864	1
6	2713	3.05448833918	3
6	2718	3.05453433918	1
6	2732	3.060276337038	0
6	2738	3.060322337038	1
6	2757	3.064589754751	3
6	2764	3.064635754751	1
6	2779	3.085794592864	3
6	2784	3.085840592864	1
6	2804	3.154488339815	3
6	2809	3.154534339815	1
6	2823	3.160276337038	0
6	2829	3.160322337038	1
6	2848	3.164589753649	3
6	2855	3.164635753649	1
6	2870	3.185794593865	3
6	2875	3.185840593865	1
6	2895	3.254488340451	3
6	2900	3.254534340451	1
6	2914	3.260276337038	0
6	2920	3.260322337038	1
6	2939	3.264589752479	3
6	2946	3.264635752479	1
6	2961	3.285794594866	3
6	2966	3.285840594866	1
6	2986	3.35448834109	3
6	2991	3.35453434109	1
6	3005	3.360276337038	0
6	3011	3.360322337038	1
6	3030	3.364589751263	3
6	3037	3.364635751263	1
6	3052	3.385794595866	3
6	3057	3.385840595866	1
6	3077	3.45448834173	3
6	3082	3.45453434173	1
6	3096	3.460276337038	0
6	3102	3.460322337038	1
6	3121	3.464589749979	3
6	3128	3.464635749979	1
6	3143	3.485794596867	3
6	3148	3.485840596867	1
6	3168	3.554488342372	3
6	3173	3.554534342372	1
6	3187	3.560276337038	0
6	3193	3.560322337038	1
6	3212	3.56458974864	3
6	3219	3.56463574864	1
6	3234	3.585794597868	3
6	3239	3.585840597868	1
6	3259	3.654488343014	3
6	3264	3.654534343014	1
6	3278	3.660276337038	0
6	3284	3.660322337038	1
6	3303	3.664589747262	3
6	3310	3.664635747262	1
6	3325	3.685794598868	3
6	3330	3.685840598868	1
6	3350	3.754488343658	3
6	3355	3.754534343658	1
6	3369	3.760276337038	0
6	3375	3.760322337038	1
6	3394	3.764589745849	3
6	3401	3.764635745849	1
6	3416	3.785794599869	3
6	3421	3.785840599869	1
6	3441	3.854488344304	3
6	3446	3.854534344304	1
6	3460	3.860276337038	0
6	3466	3.860322337038	1
6	3485	3.864589744397	3
6	3492	3.864635744397	1
6	3507	3.88579460087	3
6	3512	3.88584060087	1
6	3532	3.95448834495	3
6	3537	3.95453434495	1
6	3551	3.960276337038	0
6	3557	3.960322337038	1
6	3576	3.964589742882	3
6	3583	3.964635742882	1
6	3598	3.985794601871	3
6	3603	3.985840601871	1
6	3623	4.054488345597	3
6	3628	4.054534345597	1
6	3642	4.060276337038	0
6	3648	4.060322337038	1
6	3667	4.064589741332	3
6	3674	4.064635741332	1
6	3689	4.085794602871	3
6	3694	4.085840602871	1
6	3714	4.154488346245	3
6	3719	4.154534346245	1
6	3733	4.160276337038	0
6	3739	4.160322337038	1
6	3758	4.164589739745	3
6	3765	4.164635739745	1
6	3780	4.185794603872	3
6	3785	4.185840603872	1
6	3805	4.254488346894	3
6	3810	4.254534346894	1
6	3824	4.260276337038	0
6	3830	4.260322337038	1
6	3849	4.264589738128	3
6	3856	4.264635738128	1
6	3871	4.285794604873	3
6	3876	4.285840604873	1
6	3896	4.354488347544	3
6	3901	4.354534347544	1
6	3915	4.360276337038	0
6	3921	4.360322337038	1
6	3940	4.364589736461	3
6	3947	4.364635736461	1
6	3962	4.385794605873	3
6	3967	4.385840605873	1
6	3987	4.454488348195	3
6	3992	4.454534348195	1
6	4006	4.460276337038	0
6	4012	4.460322337038	1
6	4031	4.464589734757	3
6	4038	4.464635734757	1
6	4053	4.485794606874	3
6	4058	4.485840606874	1
6	4078	4.554488348846	3
6	4083	4.554534348846	1
6	4097	4.560276337038	0
6	4103	4.560322337038	1
6	4122	4.564589733017	3
6	4129	4.564635733017	1
6	4144	4.585794607875	3
6	4149	4.585840607875	1
6	4169	4.654488349498	3
6	4174	4.654534349498	1
6	4188	4.660276337038	0
6	4194	4.660322337038	1
6	4213	4.664589731229	3
6	4220	4.664635731229	1
6	4235	4.685794608875	3
6	4240	4.685840608875	1
6	4260	4.754488350151	3
6	4265	4.754534350151	1
6	4279	4.760276337038	0
6	4285	4.760322337038	1
6	4304	4.764589729396	3
6	4311	4.764635729396	1
6	4326	4.785794609876	3
6	4331	4.785840609876	1
6	4351	4.854488350804	3
6	4356	4.854534350804	1
6	4370	4.860276337038	0
6	4376	4.860322337038	1
6	4395	4.864589727528	3
6	4402	4.864635727528	1
6	4417	4.885794610877	3
6	4422	4.885840610877	1
6	4442	4.954488351457	3
6	4447	4.954534351457	1
6	4461	4.960276337038	0
6	4467	4.960322337038	1
6	4486	4.964589725621	3
6	4493	4.964635725621	1
6	4508	4.985794611877	3
6	4513	4.985840611877	1
6	4533	5.054488352112	3
6	4538	5.054534352112	1
6	4552	5.060276337038	0
6	4558	5.060322337038	1
6	4577	5.064589723657	3
6	4584	5.064635723657	1
6	4599	5.085794612878	3
6	4604	5.085840612878	1
6	4628	5.139610208191	3
6	4638	5.139656208191	1
6	4652	5.154488352766	3
6	4658	5.154534352766	1
6	4675	5.160276337038	0
6	4682	5.160322337038	1
6	4705	5.164589721657	3
6	4715	5.164635721657	1
6	4730	5.185794613879	3
6	4736	5.185840613879	1
6	4761	5.239610208692	3
6	4771	5.239656208692	1
6	4785	5.254488353421	3
6	4791	5.254534353421	1
6	4808	5.260276337038	0
6	4815	5.260322337038	1
6	4838	5.26458971962	3
6	4848	5.26463571962	1
6	4863	5.28579461488	3
6	4869	5.28584061488	1
6	4894	5.339610209124	3
6	4904	5.339656209124	1
6	4918	5.354488354077	3
6	4924	5.354534354077	1
6	4941	5.360276337038	0
6	4948	5.360322337038	1
6	4971	5.364589717529	3
6	4981	5.364635717529	1
6	4996	5.38579461588	3
6	5002	5.38584061588	1
6	5027	5.439610209489	3
6	5037	5.439656209489	1
6	5051	5.454488354733	3
6	5057	5.454534354733	1
6	5074	5.460276337038	0
6	5081	5.460322337038	1
6	5104	5.464589715413	3
6	5114	5.464635715413	1
6	5129	5.485794616881	3
6	5135	5.485840616881	1
6	5160	5.53961020978	3
6	5170	5.53965620978	1
6	5184	5.554488355389	3
6	5190	5.554534355389	1
6	5207	5.560276337038	0
6	5214	5.560322337038	1
6	5237	5.564589713257	3
6	5247	5.564635713257	1
6	5262	5.585794617882	3
6	5268	5.585840617882	1
6	5293	5.639610210006	3
6	5303	5.639656210006	1
6	5317	5.654488356046	3
6	5323	5.654534356046	1
6	5340	5.660276337038	0
6	5347	5.660322337038	1
6	5370	5.66458971106	3
6	5380	5.66463571106	1
6	5395	5.685794618882	3
6	5401	5.685840618882	1
6	5426	5.739610210161	3
6	5436	5.739656210161	1
6	5450	5.754488356703	3
6	5456	5.754534356703	1
6	5473	5.760276337038	0
6	5480	5.760322337038	1
6	5503	5.764589708817	3
6	5513	5.764635708817	1
6	5528	5.785794619883	3
6	5534	5.785840619883	1
6	5559	5.839610210259	3
6	5569	5.839656210259	1
6	5583	5.854488357361	3
6	5589	5.854534357361	1
6	5606	5.860276337038	0
6	5613	5.860322337038	1
6	5636	5.864589706547	3
6	5646	5.864635706547	1
6	5661	5.885794620884	3
6	5667	5.885840620884	1
6	5692	5.939610210289	3
6	5702	5.939656210289	1
6	5716	5.954488358018	3
6	5722	5.954534358018	1
6	5739	5.960276337038	0
6	5746	5.960322337038	1
6	5769	5.96458970424	3
6	5779	5.96463570424	1
6	5794	5.985794621884	3
6	5800	5.985840621884	1
6	5825	6.039610210248	3
6	5835	6.039656210248	1
6	5849	6.054488358676	3
6	5855	6.054534358676	1
6	5872	6.060276337038	0
6	5879	6.060322337038	1
6	5902	6.0645897019	3
6	5912	6.0646357019	1
6	5927	6.085794622885	3
6	5933	6.085840622885	1
6	5958	6.139610210143	3
6	5968	6.139656210143	1
6	5982	6.154488359335	3
6	5988	6.154534359335	1
6	6005	6.160276337038	0
6	6012	6.160322337038	1
6	6035	6.164589699512	3
6	6045	6.164635699512	1
6	6060	6.185794623886	3
6	6066	6.185840623886	1
6	6091	6.239610209969	3
6	6101	6.239656209969	1
6	6115	6.254488359993	3
6	6121	6.254534359993	1
6	6138	6.260276337038	0
6	6145	6.260322337038	1
6	6168	6.264589697096	3
6	6178	6.264635697096	1
6	6193	6.285794624886	3
6	6199	6.285840624886	1
6	6224	6.339610209729	3
6	6234	6.339656209729	1
6	6248	6.354488360652	3
6	6254	6.354534360652	1
6	6271	6.360276337038	0
6	6278	6.360322337038	1
6	6301	6.364589694653	3
6	6311	6.364635694653	1
6	6326	6.385794625887	3
6	6332	6.385840625887	1
6	6357	6.439610209429	3
6	6367	6.439656209429	1
6	6381	6.454488361311	3
6	6387	6.454534361311	1
6	6404	6.460276337038	0
6	6411	6.460322337038	1
6	6434	6.464589692186	3
6	6444	6.464635692186	1
6	6459	6.485794626888	3
6	6465	6.485840626888	1
6	6490	6.539610209088	3
6	6500	6.539656209088	1
6	6514	6.554488361971	3
6	6520	6.554534361971	1
6	6537	6.560276337038	0
6	6544	6.560322337038	1
6	6567	6.564589689705	3
6	6577	6.564635689705	1
6	6592	6.585794627889	3
6	6598	6.585840627889	1
6	6623	6.639610208689	3
6	6633	6.639656208689	1
6	6647	6.65448836263	3
6	6653	6.65453436263	1
6	6670	6.660276337038	0
6	6677	6.660322337038	1
6	6700	6.664589687204	3
6	6710	6.664635687204	1
6	6725	6.685794628889	3
6	6731	6.685840628889	1
6	6756	6.739610208238	3
6	6766	6.739656208238	1
6	6780	6.75448836329	3
6	6786	6.75453436329	1
6	6803	6.760276337038	0
6	6810	6.760322337038	1
6	6833	6.764589684675	3
6	6843	6.764635684675	1
6	6858	6.78579462989	3
6	6864	6.78584062989	1
6	6889	6.839610207747	3
6	6899	6.839656207747	1
6	6913	6.85448836395	3
6	6919	6.85453436395	1
6	6936	6.860276337038	0
6	6943	6.860322337038	1
6	6966	6.864589682123	3
6	6976	6.864635682123	1
6	6991	6.885794630891	3
6	6997	6.885840630891	1
6	7022	6.939610207184	3
6	7032	6.939656207184	1
6	7046	6.954488364611	3
6	7052	6.954534364611	1
6	7069	6.960276337038	0
6	7076	6.960322337038	1
6	7099	6.964589679556	3
6	7109	6.964635679556	1
6	7124	6.985794631891	3
6	7130	6.985840631891	1
6	7155	7.039610206584	3
6	7165	7.039656206584	1
6	7179	7.054488365271	3
6	7185	7.054534365271	1
6	7202	7.060276337038	0
6	7209	7.060322337038	1
6	7232	7.064589676958	3
6	7242	7.064635676958	1
6	7257	7.085794632892	3
6	7263	7.085840632892	1
6	7288	7.139610205934	3
6	7298	7.139656205934	1
6	7312	7.154488365932	3
6	7318	7.154534365932	1
6	7335	7.160276337038	0
6	7342	7.160322337038	1
6	7365	7.16458967435	3
6	7375	7.16463567435	1
6	7390	7.185794633893	3
6	7396	7.185840633893	1
6	7421	7.239610205217	3
6	7431	7.239656205217	1
6	7445	7.254488366592	3
6	7451	7.254534366592	1
6	7468	7.260276337038	0
6	7475	7.260322337038	1
6	7498	7.264589671734	3
6	7508	7.264635671734	1
6	7523	7.285794634893	3
6	7529	7.285840634893	1
6	7554	7.339610204439	3
6	7564	7.339656204439	1
6	7578	7.354488367253	3
6	7584	7.354534367253	1
6	7601	7.360276337038	0
6	7608	7.360322337038	1
6	7631	7.364589669107	3
6	7641	7.364635669107	1
6	7656	7.385794635894	3
6	7662	7.385840635894	1
6	7687	7.439610203614	3
6	7697	7.439656203614	1
6	7711	7.454488367914	3
6	7717	7.454534367914	1
6	7734	7.460276337038	0
6	7741	7.460322337038	1
6	7764	7.464589666512	3
6	7774	7.464635666512	1
6	7789	7.485794636895	3
6	7795	7.485840636895	1
6	7820	7.539610202739	3
6	7830	7.539656202739	1
6	7844	7.554488368576	3
6	7850	7.554534368576	1
6	7867	7.560276337038	0
6	7874	7.560322337038	1
6	7897	7.564589663958	3
6	7907	7.564635663958	1
6	7922	7.585794637895	3
6	7928	7.585840637895	1
6	7953	7.639610201803	3
6	7963	7.639656201803	1
6	7977	7.654488369237	3
6	7983	7.654534369237	1
6	8000	7.660276337038	0
6	8007	7.660322337038	1
6	8030	7.664589661442	3
6	8040	7.664635661442	1
6	8055	7.685794638896	3
6	8061	7.685840638896	1
6	8086	7.739610200795	3
6	8096	7.739656200795	1
6	8110	7.754488369899	3
6	8116	7.754534369899	1
6	8133	7.760276337038	0
6	8140	7.760322337038	1
6	8163	7.764589658969	3
6	8173	7.764635658969	1
6	8188	7.785794639897	3
6	8194	7.785840639897	1
6	8219	7.839610199737	3
6	8229	7.839656199737	1
6	8243	7.85448837056	3
6	8249	7.85453437056	1
6	8266	7.860276337038	0
6	8273	7.860322337038	1
6	8296	7.864589656531	3
6	8306	7.864635656531	1
6	8321	7.885794640898	3
6	8327	7.885840640898	1
6	8352	7.939610198642	3
6	8362	7.939656198642	1
6	8376	7.954488371222	3
6	8382	7.954534371222	1
6	8399	7.960276337038	0
6	8406	7.960322337038	1
6	8429	7.964589654148	3
6	8439	7.964635654148	1
6	8454	7.985794641898	3
6	8460	7.985840641898	1
6	8485	8.039610197498	3
6	8495	8.039656197498	1
6	8509	8.054488371884	3
6	8515	8.054534371884	1
6	8532	8.060276337038	0
6	8539	8.060322337038	1
6	8562	8.064589651782	3
6	8572	8.064635651782	1
6	8587	8.085794642899	3
6	8593	8.085840642899	1
6	8618	8.139610196305	3
6	8628	8.139656196305	1
6	8642	8.154488372546	3
6	8648	8.154534372546	1
6	8665	8.160276337038	0
6	8672	8.160322337038	1
6	8695	8.164589649461	3
6	8705	8.164635649461	1
6	8720	8.1857946439	3
6	8726	8.1858406439	1
6	8751	8.239610195077	3
6	8761	8.239656195077	1
6	8775	8.254488373209	3
6	8781	8.254534373209	1
6	8798	8.260276337038	0
6	8805	8.260322337038	1
6	8828	8.264589647183	3
6	8838	8.264635647183	1
6	8853	8.2857946449	3
6	8859	8.2858406449	1
6	8884	8.339610193798	3
6	8894	8.339656193798	1
6	8908	8.354488373871	3
6	8914	8.354534373871	1
6	8931	8.360276337038	0
6	8938	8.360322337038	1
6	8961	8.364589644961	3
6	8971	8.364635644961	1
6	8986	8.385794645901	3
6	8992	8.385840645901	1
6	9017	8.439610192463	3
6	9027	8.439656192463	1
6	9041	8.454488374533	3
6	9047	8.454534374533	1
6	9064	8.460276337038	0
6	9071	8.460322337038	1
6	9094	8.464589642776	3
6	9104	8.464635642776	1
6	9119	8.485794646902	3
6	9125	8.485840646902	1
6	9150	8.539610191073	3
6	9160	8.539656191073	1
6	9174	8.554488375196	3
6	9180	8.554534375196	1
6	9197	8.560276337038	0
6	9204	8.560322337038	1
6	9227	8.564589640644	3
6	9237	8.564635640644	1
6	9252	8.585794647902	3
6	9258	8.585840647902	1
6	9283	8.639610189635	3
6	9293	8.639656189635	1
6	9307	8.654488375859	3
6	9313	8.654534375859	1
6	9330	8.660276337038	0
6	9337	8.660322337038	1
6	9360	8.664589638555	3
6	9370	8.664635638555	1
6	9385	8.685794648903	3
6	9391	8.685840648903	1
6	9416	8.739610188139	3
6	9426	8.739656188139	1
6	9440	8.754488376521	3
6	9446	8.754534376521	1
6	9463	8.760276337038	0
7	0	0	1
7	16	0.054488324471	3
7	22	0.054534324471	1
7	32	0.060276337641	3
7	36	0.060322337641	1
7	49	0.085794561985	0
7	54	0.085840561985	1
7	75	0.15448832489	3
7	82	0.15453432489	1
7	95	0.160276338642	3
7	100	0.160322338642	1
7	119	0.164589765098	3
7	128	0.164635765098	1
7	138	0.185794561985	0
7	144	0.185840561985	1
7	166	0.254488325645	3
7	173	0.254534325645	1
7	186	0.260276339643	3
7	191	0.260322339643	1
7	210	0.264589766424	3
7	219	0.264635766424	1
7	229	0.285794561985	0
7	235	0.285840561985	1
7	257	0.354488326652	3
7	264	0.354534326652	1
7	277	0.360276340643	3
7	282	0.360322340643	1
7	301	0.364589767683	3
7	310	0.364635767683	1
7	320	0.385794561985	0
7	326	0.385840561985	1
7	348	0.454488327836	3
7	355	0.454534327836	1
7	368	0.460276341644	3
7	373	0.460322341644	1
7	392	0.464589768879	3
7	401	0.464635768879	1
7	411	0.485794561985	0
7	417	0.485840561985	1
7	439	0.554488329141	3
7	446	0.554534329141	1
7	459	0.560276342645	3
7	464	0.560322342645	1
7	483	0.564589770015	3
7	492	0.564635770015	1
7	502	0.585794561985	0
7	508	0.585840561985	1
7	530	0.654488330531	3
7	537	0.654534330531	1
7	550	0.660276343645	3
7	555	0.660322343645	1
7	574	0.66458977109	3
7	583	0.66463577109	1
7	593	0.685794561985	0
7	599	0.685840561985	1
7	621	0.754488331981	3
7	628	0.754534331981	1
7	641	0.760276344646	3
7	646	0.760322344646	1
7	665	0.76458977211	3
7	674	0.76463577211	1
7	684	0.785794561985	0
7	690	0.785840561985	1
7	712	0.854488333474	3
7	719	0.854534333474	1
7	732	0.860276345647	3
7	737	0.860322345647	1
7	756	0.864589773071	3
7	765	0.864635773071	1
7	775	0.885794561985	0
7	781	0.885840561985	1
7	803	0.954488334999	3
7	810	0.954534334999	1
7	824	0.960276346647	3
7	831	0.960322346647	1
7	847	0.964589773982	3
7	856	0.964635773982	1
7	866	0.985794561985	0
7	872	0.985840561985	1
7	894	1.054488336548	3
7	901	1.054534336548	1
7	915	1.060276347648	3
7	922	1.060322347648	1
7	938	1.064589774832	3
7	947	1.064635774832	1
7	957	1.085794561985	0
7	963	1.085840561985	1
7	985	1.154488338116	3
7	992	1.154534338116	1
7	1006	1.160276348649	3
7	1013	1.160322348649	1
7	1029	1.164589775629	3
7	1038	1.164635775629	1
7	1048	1.185794561985	0
7	1054	1.185840561985	1
7	1076	1.254488339698	3
7	1083	1.254534339698	1
7	1097	1.260276349649	3
7	1104	1.260322349649	1
7	1120	1.264589776376	3
7	1129	1.264635776376	1
7	1139	1.285794561985	0
7	1145	1.285840561985	1
7	1167	1.354488341293	3
7	1174	1.354534341293	1
7	1188	1.36027635065	3
7	1195	1.36032235065	1
7	1211	1.364589777064	3
7	1220	1.364635777064	1
7	1230	1.385794561985	0
7	1236	1.385840561985	1
7	1258	1.454488342897	3
7	1265	1.454534342897	1
7	1279	1.460276351651	3
7	1286	1.460322351651	1
7	1302	1.464589777695	3
7	1311	1.464635777695	1
7	1321	1.485794561985	0
7	1327	1.485840561985	1
7	1349	1.554488344509	3
7	1356	1.554534344509	1
7	1370	1.560276352652	3
7	1377	1.560322352652	1
7	1393	1.564589778264	3
7	1402	1.564635778264	1
7	1412	1.585794561985	0
7	1418	1.585840561985	1
7	1440	1.654488346127	3
7	1447	1.654534346127	1
7	1461	1.660276353652	3
7	1468	1.660322353652	1
7	1484	1.664589778792	3
7	1493	1.664635778792	1
7	1503	1.685794561985	0
7	1509	1.685840561985	1
7	1531	1.754488347751	3
7	1538	1.754534347751	1
7	1552	1.760276354653	3
7	1559	1.760322354653	1
7	1575	1.764589779249	3
7	1584	1.764635779249	1
7	1594	1.785794561985	0
7	1600	1.785840561985	1
7	1622	1.854488349379	3
7	1629	1.854534349379	1
7	1643	1.860276355654	3
7	1650	1.860322355654	1
7	1666	1.864589779668	3
7	1675	1.864635779668	1
7	1685	1.885794561985	0
7	1691	1.885840561985	1
7	1713	1.954488351011	3
7	1720	1.954534351011	1
7	1734	1.960276356654	3
7	1741	1.960322356654	1
7	1757	1.964589780024	3
7	1766	1.964635780024	1
7	1776	1.985794561985	0
7	1782	1.985840561985	1
7	1804	2.054488352647	3
7	1811	2.054534352647	1
7	1825	2.060276357655	3
7	1832	2.060322357655	1
7	1848	2.06458978032	3
7	1857	2.06463578032	1
7	1867	2.085794561985	0
7	1873	2.085840561985	1
7	1895	2.154488354285	3
7	1902	2.154534354285	1
7	1916	2.160276358656	3
7	1923	2.160322358656	1
7	1939	2.16458978056	3
7	1948	2.16463578056	1
7	1958	2.185794561985	0
7	1964	2.185840561985	1
7	1986	2.254488355926	3
7	1993	2.254534355926	1
7	2007	2.260276359656	3
7	2014	2.260322359656	1
7	2030	2.264589780755	3
7	2039	2.264635780755	1
7	2049	2.285794561985	0
7	2055	2.285840561985	1
7	2077	2.354488357569	3
7	2084	2.354534357569	1
7	2098	2.360276360657	3
7	2105	2.360322360657	1
7	2121	2.364589780906	3
7	2130	2.364635780906	1
7	2140	2.385794561985	0
7	2146	2.385840561985	1
7	2168	2.454488359214	3
7	2175	2.454534359214	1
7	2189	2.460276361658	3
7	2196	2.460322361658	1
7	2212	2.464589781003	3
7	2221	2.464635781003	1
7	2231	2.485794561985	0
7	2237	2.485840561985	1
7	2259	2.554488360861	3
7	2266	2.554534360861	1
7	2280	2.560276362658	3
7	2287	2.560322362658	1
7	2303	2.564589781045	3
7	2312	2.564635781045	1
7	2322	2.585794561985	0
7	2328	2.585840561985	1
7	2350	2.65448836251	3
7	2357	2.65453436251	1
7	2371	2.660276363659	3
7	2378	2.660322363659	1
7	2394	2.664589781033	3
7	2403	2.664635781033	1
7	2413	2.685794561985	0
7	2419	2.685840561985	1
7	2441	2.75448836416	3
7	2448	2.75453436416	1
7	2462	2.76027636466	3
7	2469	2.76032236466	1
7	2485	2.764589780962	3
7	2494	2.764635780962	1
7	2504	2.785794561985	0
7	2510	2.785840561985	1
7	2532	2.854488365811	3
7	2539	2.854534365811	1
7	2553	2.860276365661	3
7	2560	2.860322365661	1
7	2576	2.864589780851	3
7	2585	2.864635780851	1
7	2595	2.885794561985	0
7	2601	2.885840561985	1
7	2623	2.954488367463	3
7	2630	2.954534367463	1
7	2644	2.960276366661	3
7	2651	2.960322366661	1
7	2667	2.964589780697	3
7	2676	2.964635780697	1
7	2686	2.985794561985	0
7	2692	2.985840561985	1
7	2714	3.054488369116	3
7	2721	3.054534369116	1
7	2735	3.060276367662	3
7	2742	3.060322367662	1
7	2758	3.064589780472	3
7	2767	3.064635780472	1
7	2777	3.085794561985	0
7	2783	3.085840561985	1
7	2805	3.15448837077	3
7	2812	3.15453437077	1
7	2826	3.160276368663	3
7	2833	3.160322368663	1
7	2849	3.164589780186	3
7	2858	3.164635780186	1
7	2868	3.185794561985	0
7	2874	3.185840561985	1
7	2896	3.254488372425	3
7	2903	3.254534372425	1
7	2917	3.260276369663	3
7	2924	3.260322369663	1
7	2940	3.264589779829	3
7	2949	3.264635779829	1
7	2959	3.285794561985	0
7	2965	3.285840561985	1
7	2987	3.354488374081	3
7	2994	3.354534374081	1
7	3008	3.360276370664	3
7	3015	3.360322370664	1
7	3031	3.364589779423	3
7	3040	3.364635779423	1
7	3050	3.385794561985	0
7	3056	3.385840561985	1
7	3078	3.454488375738	3
7	3085	3.454534375738	1
7	3099	3.460276371665	3
7	3106	3.460322371665	1
7	3122	3.464589778944	3
7	3131	3.464635778944	1
7	3141	3.485794561985	0
7	3147	3.485840561985	1
7	3169	3.554488377395	3
7	3176	3.554534377395	1
7	3190	3.560276372665	3
7	3197	3.560322372665	1
7	3213	3.564589778405	3
7	3222	3.564635778405	1
7	3232	3.585794561985	0
7	3238	3.585840561985	1
7	3260	3.654488379052	3
7	3267	3.654534379052	1
7	3281	3.660276373666	3
7	3288	3.660322373666	1
7	3304	3.664589777823	3
7	3313	3.664635777823	1
7	3323	3.685794561985	0
7	3329	3.685840561985	1
7	3351	3.75448838071	3
7	3358	3.75453438071	1
7	3372	3.760276374667	3
7	3379	3.760322374667	1
7	3395	3.764589777203	3
7	3404	3.764635777203	1
7	3414	3.785794561985	0
7	3420	3.785840561985	1
7	3442	3.854488382369	3
7	3449	3.854534382369	1
7	3463	3.860276375667	3
7	3470	3.860322375667	1
7	3486	3.864589776539	3
7	3495	3.864635776539	1
7	3505	3.885794561985	0
7	3511	3.885840561985	1
7	3533	3.954488384028	3
7	3540	3.954534384028	1
7	3554	3.960276376668	3
7	3561	3.960322376668	1
7	3577	3.964589775807	3
7	3586	3.964635775807	1
7	3596	3.985794561985	0
7	3602	3.985840561985	1
7	3624	4.054488385688	3
7	3631	4.054534385688	1
7	3645	4.060276377669	3
7	3652	4.060322377669	1
7	3668	4.064589775034	3
7	3677	4.064635775034	1
7	3687	4.085794561985	0
7	3693	4.085840561985	1
7	3715	4.154488387348	3
7	3722	4.154534387348	1
7	3736	4.16027637867	3
7	3743	4.16032237867	1
7	3759	4.164589774221	3
7	3768	4.164635774221	1
7	3778	4.185794561985	0
7	3784	4.185840561985	1
7	3806	4.254488389008	3
7	3813	4.254534389008	1
7	3827	4.26027637967	3
7	3834	4.26032237967	1
7	3850	4.26458977337	3
7	3859	4.26463577337	1
7	3869	4.285794561985	0
7	3875	4.285840561985	1
7	3897	4.354488390669	3
7	3904	4.354534390669	1
7	3918	4.360276380671	3
7	3925	4.360322380671	1
7	3941	4.364589772465	3
7	3950	4.364635772465	1
7	3960	4.385794561985	0
7	3966	4.385840561985	1
7	3988	4.45448839233	3
7	3995	4.45453439233	1
7	4009	4.460276381672	3
7	4016	4.460322381672	1
7	4032	4.464589771517	3
7	4041	4.464635771517	1
7	4051	4.485794561985	0
7	4057	4.485840561985	1
7	4079	4.554488393991	3
7	4086	4.554534393991	1
7	4100	4.560276382672	3
7	4107	4.560322382672	1
7	4123	4.564589770526	3
7	4132	4.564635770526	1
7	4142	4.585794561985	0
7	4148	4.585840561985	1
7	4170	4.654488395653	3
7	4177	4.654534395653	1
7	4191	4.660276383673	3
7	4198	4.660322383673	1
7	4214	4.664589769479	3
7	4223	4.664635769479	1
7	4233	4.685794561985	0
7	4239	4.685840561985	1
7	4261	4.754488397314	3
7	4268	4.754534397314	1
7	4282	4.760276384674	3
7	4289	4.760322384674	1
7	4305	4.764589768381	3
7	4314	4.764635768381	1
7	4324	4.785794561985	0
7	4330	4.785840561985	1
7	4352	4.854488398977	3
7	4359	4.854534398977	1
7	4373	4.860276385674	3
7	4380	4.860322385674	1
7	4396	4.864589767239	3
7	4405	4.864635767239	1
7	4415	4.885794561985	0
7	4421	4.885840561985	1
7	4443	4.954488400639	3
7	4450	4.954534400639	1
7	4464	4.960276386675	3
7	4471	4.960322386675	1
7	4487	4.964589766051	3
7	4496	4.964635766051	1
7	4506	4.985794561985	0
7	4512	4.985840561985	1
7	4534	5.054488402301	3
7	4541	5.054534402301	1
7	4555	5.060276387676	3
7	4562	5.060322387676	1
7	4578	5.064589764796	3
7	4587	5.064635764796	1
7	4597	5.085794561985	0
7	4603	5.085840561985	1
7	4629	5.139610253257	3
7	4641	5.139656253257	1
7	4653	5.154488403964	3
7	4661	5.154534403964	1
7	4678	5.160276388676	3
7	4686	5.160322388676	1
7	4706	5.164589763497	3
7	4718	5.164635763497	1
7	4728	5.185794561985	0
7	4735	5.185840561985	1
7	4762	5.239610254668	3
7	4774	5.239656254668	1
7	4786	5.254488405627	3
7	4794	5.254534405627	1
7	4811	5.260276389677	3
7	4819	5.260322389677	1
7	4839	5.264589762151	3
7	4851	5.264635762151	1
7	4861	5.285794561985	0
7	4868	5.285840561985	1
7	4895	5.339610256006	3
7	4907	5.339656256006	1
7	4919	5.35448840729	3
7	4927	5.35453440729	1
7	4944	5.360276390678	3
7	4952	5.360322390678	1
7	4972	5.364589760741	3
7	4984	5.364635760741	1
7	4994	5.385794561985	0
7	5001	5.385840561985	1
7	5028	5.439610257277	3
7	5040	5.439656257277	1
7	5052	5.454488408953	3
7	5060	5.454534408953	1
7	5077	5.460276391679	3
7	5085	5.460322391679	1
7	5105	5.464589759294	3
7	5117	5.464635759294	1
7	5127	5.485794561985	0
7	5134	5.485840561985	1
7	5161	5.539610258473	3
7	5173	5.539656258473	1
7	5185	5.554488410617	3
7	5193	5.554534410617	1
7	5210	5.560276392679	3
7	5218	5.560322392679	1
7	5238	5.564589757798	3
7	5250	5.564635757798	1
7	5260	5.585794561985	0
7	5267	5.585840561985	1
7	5294	5.639610259601	3
7	5306	5.639656259601	1
7	5318	5.65448841228	3
7	5326	5.65453441228	1
7	5343	5.66027639368	3
7	5351	5.66032239368	1
7	5371	5.664589756247	3
7	5383	5.664635756247	1
7	5393	5.685794561985	0
7	5400	5.685840561985	1
7	5427	5.739610260656	3
7	5439	5.739656260656	1
7	5451	5.754488413944	3
7	5459	5.754534413944	1
7	5476	5.760276394681	3
7	5484	5.760322394681	1
7	5504	5.764589754638	3
7	5516	5.764635754638	1
7	5526	5.785794561985	0
7	5533	5.785840561985	1
7	5560	5.839610261653	3
7	5572	5.839656261653	1
7	5584	5.854488415608	3
7	5592	5.854534415608	1
7	5609	5.860276395681	3
7	5617	5.860322395681	1
7	5637	5.864589752988	3
7	5649	5.864635752988	1
7	5659	5.885794561985	0
7	5666	5.885840561985	1
7	5693	5.939610262579	3
7	5705	5.939656262579	1
7	5717	5.954488417272	3
7	5725	5.954534417272	1
7	5742	5.960276396682	3
7	5750	5.960322396682	1
7	5770	5.964589751287	3
7	5782	5.964635751287	1
7	5792	5.985794561985	0
7	5799	5.985840561985	1
7	5826	6.039610263433	3
7	5838	6.039656263433	1
7	5850	6.054488418936	3
7	5858	6.054534418936	1
7	5875	6.060276397683	3
7	5883	6.060322397683	1
7	5903	6.064589749539	3
7	5915	6.064635749539	1
7	5925	6.085794561985	0
7	5932	6.085840561985	1
7	5959	6.13961026422	3
7	5971	6.13965626422	1
7	5983	6.1544884206	3
7	5991	6.1545344206	1
7	6008	6.160276398683	3
7	6016	6.160322398683	1
7	6036	6.164589747725	3
7	6048	6.164635747725	1
7	6058	6.185794561985	0
7	6065	6.185840561985	1
7	6092	6.239610264937	3
7	6104	6.239656264937	1
7	6116	6.254488422265	3
7	6124	6.254534422265	1
7	6141	6.260276399684	3
7	6149	6.260322399684	1
7	6169	6.264589745868	3
7	6181	6.264635745868	1
7	6191	6.285794561985	0
7	6198	6.285840561985	1
7	6225	6.339610265584	3
7	6237	6.339656265584	1
7	6249	6.354488423929	3
7	6257	6.354534423929	1
7	6274	6.360276400685	3
7	6282	6.360322400685	1
7	6302	6.364589743967	3
7	6314	6.364635743967	1
7	6324	6.385794561985	0
7	6331	6.385840561985	1
7	6358	6.439610266169	3
7	6370	6.439656266169	1
7	6382	6.454488425594	3
7	6390	6.454534425594	1
7	6407	6.460276401685	3
7	6415	6.460322401685	1
7	6435	6.464589742022	3
7	6447	6.464635742022	1
7	6457	6.485794561985	0
7	6464	6.485840561985	1
7	6491	6.539610266711	3
7	6503	6.539656266711	1
7	6515	6.554488427258	3
7	6523	6.554534427258	1
7	6540	6.560276402686	3
7	6548	6.560322402686	1
7	6568	6.564589740047	3
7	6580	6.564635740047	1
7	6590	6.585794561985	0
7	6597	6.585840561985	1
7	6624	6.639610267193	3
7	6636	6.639656267193	1
7	6648	6.654488428923	3
7	6656	6.654534428923	1
7	6673	6.660276403687	3
7	6681	6.660322403687	1
7	6701	6.664589738032	3
7	6713	6.664635738032	1
7	6723	6.685794561985	0
7	6730	6.685840561985	1
7	6757	6.739610267621	3
7	6769	6.739656267621	1
7	6781	6.754488430588	3
7	6789	6.754534430588	1
7	6806	6.760276404688	3
7	6814	6.760322404688	1
7	6834	6.764589735967	3
7	6846	6.764635735967	1
7	6856	6.785794561985	0
7	6863	6.785840561985	1
7	6890	6.839610268007	3
7	6902	6.839656268007	1
7	6914	6.854488432253	3
7	6922	6.854534432253	1
7	6939	6.860276405688	3
7	6947	6.860322405688	1
7	6967	6.864589733854	3
7	6979	6.864635733854	1
7	6989	6.885794561985	0
7	6996	6.885840561985	1
7	7023	6.939610268319	3
7	7035	6.939656268319	1
7	7047	6.954488433918	3
7	7055	6.954534433918	1
7	7072	6.960276406689	3
7	7080	6.960322406689	1
7	7100	6.964589731705	3
7	7112	6.964635731705	1
7	7122	6.985794561985	0
7	7129	6.985840561985	1
7	7156	7.03961026859	3
7	7168	7.03965626859	1
7	7180	7.054488435583	3
7	7188	7.054534435583	1
7	7205	7.06027640769	3
7	7213	7.06032240769	1
7	7233	7.064589729497	3
7	7245	7.064635729497	1
7	7255	7.085794561985	0
7	7262	7.085840561985	1
7	7289	7.13961026881	3
7	7301	7.13965626881	1
7	7313	7.154488437248	3
7	7321	7.154534437248	1
7	7338	7.16027640869	3
7	7346	7.16032240869	1
7	7366	7.164589727253	3
7	7378	7.164635727253	1
7	7388	7.185794561985	0
7	7395	7.185840561985	1
7	7422	7.239610268958	3
7	7434	7.239656268958	1
7	7446	7.254488438914	3
7	7454	7.254534438914	1
7	7471	7.260276409691	3
7	7479	7.260322409691	1
7	7499	7.264589724972	3
7	7511	7.264635724972	1
7	7521	7.285794561985	0
7	7528	7.285840561985	1
7	7555	7.339610269042	3
7	7567	7.339656269042	1
7	7579	7.354488440579	3
7	7587	7.354534440579	1
7	7604	7.360276410692	3
7	7612	7.360322410692	1
7	7632	7.364589722651	3
7	7644	7.364635722651	1
7	7654	7.385794561985	0
7	7661	7.385840561985	1
7	7688	7.439610269077	3
7	7700	7.439656269077	1
7	7712	7.454488442244	3
7	7720	7.454534442244	1
7	7737	7.460276411692	3
7	7745	7.460322411692	1
7	7765	7.464589720338	3
7	7777	7.464635720338	1
7	7787	7.485794561985	0
7	7794	7.485840561985	1
7	7821	7.539610269058	3
7	7833	7.539656269058	1
7	7845	7.55448844391	3
7	7853	7.55453444391	1
7	7870	7.560276412693	3
7	7878	7.560322412693	1
7	7898	7.564589718043	3
7	7910	7.564635718043	1
7	7920	7.585794561985	0
7	7927	7.585840561985	1
7	7954	7.639610268974	3
7	7966	7.639656268974	1
7	7978	7.654488445575	3
7	7986	7.654534445575	1
7	8003	7.660276413694	3
7	8011	7.660322413694	1
7	8031	7.66458971576	3
7	8043	7.66463571576	1
7	8053	7.685794561985	0
7	8060	7.685840561985	1
7	8087	7.739610268814	3
7	8099	7.739656268814	1
7	8111	7.754488447241	3
7	8119	7.754534447241	1
7	8136	7.760276414694	3
7	8144	7.760322414694	1
7	8164	7.764589713496	3
7	8176	7.764635713496	1
7	8186	7.785794561985	0
7	8193	7.785840561985	1
7	8220	7.8396102686	3
7	8232	7.8396562686	1
7	8244	7.854488448907	3
7	8252	7.854534448907	1
7	8269	7.860276415695	3
7	8277	7.860322415695	1
7	8297	7.864589711239	3
7	8309	7.864635711239	1
7	8319	7.885794561985	0
7	8326	7.885840561985	1
7	8353	7.939610268346	3
7	8365	7.939656268346	1
7	8377	7.954488450572	3
7	8385	7.954534450572	1
7	8402	7.960276416696	3
7	8410	7.960322416696	1
7	8430	7.964589709013	3
7	8442	7.964635709013	1
7	8452	7.985794561985	0
7	8459	7.985840561985	1
7	8486	8.039610268039	3
7	8498	8.039656268039	1
7	8510	8.054488452238	3
7	8518	8.054534452238	1
7	8535	8.060276417697	3
7	8543	8.060322417697	1
7	8563	8.06458970677	3
7	8575	8.06463570677	1
7	8585	8.085794561985	0
7	8592	8.085840561985	1
7	8619	8.139610267679	3
7	8631	8.139656267679	1
7	8643	8.154488453904	3
7	8651	8.154534453904	1
7	8668	8.160276418697	3
7	8676	8.160322418697	1
7	8696	8.164589704543	3
7	8708	8.164635704543	1
7	8718	8.185794561985	0
7	8725	8.185840561985	1
7	8752	8.23961026728	3
7	8764	8.23965626728	1
7	8776	8.25448845557	3
7	8784	8.25453445557	1
7	8801	8.260276419698	3
7	8809	8.260322419698	1
7	8829	8.264589702328	3
7	8841	8.264635702328	1
7	8851	8.285794561985	0
7	8858	8.285840561985	1
7	8885	8.339610266826	3
7	8897	8.339656266826	1
7	8909	8.354488457235	3
7	8917	8.354534457235	1
7	8934	8.360276420699	3
7	8942	8.360322420699	1
7	8962	8.364589700141	3
7	8974	8.364635700141	1
7	8984	8.385794561985	0
7	8991	8.385840561985	1
7	9018	8.439610266311	3
7	9030	8.439656266311	1
7	9042	8.454488458901	3
7	9050	8.454534458901	1
7	9067	8.460276421699	3
7	9075	8.460322421699	1
7	9095	8.464589697956	3
7	9107	8.464635697956	1
7	9117	8.485794561985	0
7	9124	8.485840561985	1
7	9151	8.539610265736	3
7	9163	8.539656265736	1
7	9175	8.554488460567	3
7	9183	8.554534460567	1
7	9200	8.5602764227	3
7	9208	8.5603224227	1
7	9228	8.564589695791	3
7	9240	8.564635695791	1
7	9250	8.585794561985	0
7	9257	8.585840561985	1
7	9284	8.639610265108	3
7	9296	8.639656265108	1
7	9308	8.654488462233	3
7	9316	8.654534462233	1
7	9333	8.660276423701	3
7	9341	8.660322423701	1
7	9361	8.664589693634	3
7	9373	8.664635693634	1
7	9383	8.685794561985	0
7	9390	8.685840561985	1
7	9417	8.739610264416	3
7	9429	8.739656264416	1
7	9441	8.754488463899	3
7	9449	8.754534463899	1
8	0	0	1
8	13	0.054488317738	0
8	18	0.054534317738	1
8	33	0.060276343721	3
8	39	0.060322343721	1
8	52	0.085794568808	3
8	58	0.085840568808	1
8	72	0.154488317738	0
8	78	0.154534317738	1
8	96	0.160276343794	3
8	103	0.160322343794	1
8	117	0.164589762741	3
8	122	0.164635762741	1
8	141	0.185794569341	3
8	148	0.185840569341	1
8	163	0.254488317738	0
8	169	0.254534317738	1
8	187	0.260276343932	3
8	194	0.260322343932	1
8	208	0.264589762671	3
8	213	0.264635762671	1
8	232	0.285794570184	3
8	239	0.285840570184	1
8	254	0.354488317738	0
8	260	0.354534317738	1
8	278	0.360276344129	3
8	285	0.360322344129	1
8	299	0.364589762533	3
8	304	0.364635762533	1
8	323	0.385794571254	3
8	330	0.385840571254	1
8	345	0.454488317738	0
8	351	0.454534317738	1
8	369	0.460276344382	3
8	376	0.460322344382	1
8	390	0.464589762329	3
8	395	0.464635762329	1
8	414	0.48579457248	3
8	421	0.48584057248	1
8	436	0.554488317738	0
8	442	0.554534317738	1
8	460	0.560276344685	3
8	467	0.560322344685	1
8	481	0.564589762066	3
8	486	0.564635762066	1
8	505	0.585794573815	3
8	512	0.585840573815	1
8	527	0.654488317738	0
8	533	0.654534317738	1
8	551	0.660276345032	3
8	558	0.660322345032	1
8	572	0.66458976174	3
8	577	0.66463576174	1
8	596	0.685794575226	3
8	603	0.685840575226	1
8	618	0.754488317738	0
8	624	0.754534317738	1
8	642	0.760276345418	3
8	649	0.760322345418	1
8	663	0.764589761359	3
8	668	0.764635761359	1
8	687	0.785794576691	3
8	694	0.785840576691	1
8	709	0.854488317738	0
8	715	0.854534317738	1
8	733	0.860276345838	3
8	740	0.860322345838	1
8	754	0.864589760918	3
8	759	0.864635760918	1
8	778	0.885794578195	3
8	785	0.885840578195	1
8	800	0.954488317738	0
8	806	0.954534317738	1
8	823	0.960276346287	3
8	828	0.960322346287	1
8	845	0.964589760427	3
8	850	0.964635760427	1
8	869	0.985794579728	3
8	876	0.985840579728	1
8	891	1.054488317738	0
8	897	1.054534317738	1
8	914	1.060276346761	3
8	919	1.060322346761	1
8	936	1.064589759877	3
8	941	1.064635759877	1
8	960	1.085794581284	3
8	967	1.085840581284	1
8	982	1.154488317738	0
8	988	1.154534317738	1
8	1005	1.160276347257	3
8	1010	1.160322347257	1
8	1027	1.164589759274	3
8	1032	1.164635759274	1
8	1051	1.185794582857	3
8	1058	1.185840582857	1
8	1073	1.254488317738	0
8	1079	1.254534317738	1
8	1096	1.260276347771	3
8	1101	1.260322347771	1
8	1118	1.264589758621	3
8	1123	1.264635758621	1
8	1142	1.285794584443	3
8	1149	1.285840584443	1
8	1164	1.354488317738	0
8	1170	1.354534317738	1
8	1187	1.360276348301	3
8	1192	1.360322348301	1
8	1209	1.364589757911	3
8	1214	1.364635757911	1
8	1233	1.385794586041	3
8	1240	1.385840586041	1
8	1255	1.454488317738	0
8	1261	1.454534317738	1
8	1278	1.460276348845	3
8	1283	1.460322348845	1
8	1300	1.464589757145	3
8	1305	1.464635757145	1
8	1324	1.485794587648	3
8	1331	1.485840587648	1
8	1346	1.554488317738	0
8	1352	1.554534317738	1
8	1369	1.560276349401	3
8	1374	1.560322349401	1
8	1391	1.564589756319	3
8	1396	1.564635756319	1
8	1415	1.585794589262	3
8	1422	1.585840589262	1
8	1437	1.654488317738	0
8	1443	1.654534317738	1
8	1460	1.660276349968	3
8	1465	1.660322349968	1
8	1482	1.664589755454	3
8	1487	1.664635755454	1
8	1506	1.685794590882	3
8	1513	1.685840590882	1
8	1528	1.754488317738	0
8	1534	1.754534317738	1
8	1551	1.760276350544	3
8	1556	1.760322350544	1
8	1573	1.764589754521	3
8	1578	1.764635754521	1
8	1597	1.785794592507	3
8	1604	1.785840592507	1
8	1619	1.854488317738	0
8	1625	1.854534317738	1
8	1642	1.860276351128	3
8	1647	1.860322351128	1
8	1664	1.864589753552	3
8	1669	1.864635753552	1
8	1688	1.885794594136	3
8	1695	1.885840594136	1
8	1710	1.954488317738	0
8	1716	1.954534317738	1
8	1733	1.960276351719	3
8	1738	1.960322351719	1
8	1755	1.964589752522	3
8	1760	1.964635752522	1
8	1779	1.98579459577	3
8	1786	1.98584059577	1
8	1801	2.054488317738	0
8	1807	2.054534317738	1
8	1824	2.060276352316	3
8	1829	2.060322352316	1
8	1846	2.064589751436	3
8	1851	2.064635751436	1
8	1870	2.085794597406	3
8	1877	2.085840597406	1
8	1892	2.154488317738	0
8	1898	2.154534317738	1
8	1915	2.160276352919	3
8	1920	2.160322352919	1
8	1937	2.164589750298	3
8	1942	2.164635750298	1
8	1961	2.185794599046	3
8	1968	2.185840599046	1
8	1983	2.254488317738	0
8	1989	2.254534317738	1
8	2006	2.260276353527	3
8	2011	2.260322353527	1
8	2028	2.264589749119	3
8	2033	2.264635749119	1
8	2052	2.285794600687	3
8	2059	2.285840600687	1
8	2074	2.354488317738	0
8	2080	2.354534317738	1
8	2097	2.360276354139	3
8	2102	2.360322354139	1
8	2119	2.364589747899	3
8	2124	2.364635747899	1
8	2143	2.385794602331	3
8	2150	2.385840602331	1
8	2165	2.454488317738	0
8	2171	2.454534317738	1
8	2188	2.460276354755	3
8	2193	2.460322354755	1
8	2210	2.46458974663	3
8	2215	2.46463574663	1
8	2234	2.485794603977	3
8	2241	2.485840603977	1
8	2256	2.554488317738	0
8	2262	2.554534317738	1
8	2279	2.560276355375	3
8	2284	2.560322355375	1
8	2301	2.56458974531	3
8	2306	2.56463574531	1
8	2325	2.585794605624	3
8	2332	2.585840605624	1
8	2347	2.654488317738	0
8	2353	2.654534317738	1
8	2370	2.660276355998	3
8	2375	2.660322355998	1
8	2392	2.664589743941	3
8	2397	2.664635743941	1
8	2416	2.685794607273	3
8	2423	2.685840607273	1
8	2438	2.754488317738	0
8	2444	2.754534317738	1
8	2461	2.760276356624	3
8	2466	2.760322356624	1
8	2483	2.764589742519	3
8	2488	2.764635742519	1
8	2507	2.785794608924	3
8	2514	2.785840608924	1
8	2529	2.854488317738	0
8	2535	2.854534317738	1
8	2552	2.860276357252	3
8	2557	2.860322357252	1
8	2574	2.864589741063	3
8	2579	2.864635741063	1
8	2598	2.885794610575	3
8	2605	2.885840610575	1
8	2620	2.954488317738	0
8	2626	2.954534317738	1
8	2643	2.960276357883	3
8	2648	2.960322357883	1
8	2665	2.964589739569	3
8	2670	2.964635739569	1
8	2689	2.985794612228	3
8	2696	2.985840612228	1
8	2711	3.054488317738	0
8	2717	3.054534317738	1
8	2734	3.060276358516	3
8	2739	3.060322358516	1
8	2756	3.064589738011	3
8	2761	3.064635738011	1
8	2780	3.085794613881	3
8	2787	3.085840613881	1
8	2802	3.154488317738	0
8	2808	3.154534317738	1
8	2825	3.160276359151	3
8	2830	3.160322359151	1
8	2847	3.164589736399	3
8	2852	3.164635736399	1
8	2871	3.185794615536	3
8	2878	3.185840615536	1
8	2893	3.254488317738	0
8	2899	3.254534317738	1
8	2916	3.260276359788	3
8	2921	3.260322359788	1
8	2938	3.264589734726	3
8	2943	3.264635734726	1
8	2962	3.285794617191	3
8	2969	3.285840617191	1
8	2984	3.354488317738	0
8	2990	3.354534317738	1
8	3007	3.360276360427	3
8	3012	3.360322360427	1
8	3029	3.36458973301	3
8	3034	3.36463573301	1
8	3053	3.385794618847	3
8	3060	3.385840618847	1
8	3075	3.454488317738	0
8	3081	3.454534317738	1
8	3098	3.460276361067	3
8	3103	3.460322361067	1
8	3120	3.464589731232	3
8	3125	3.464635731232	1
8	3144	3.485794620503	3
8	3151	3.485840620503	1
8	3166	3.554488317738	0
8	3172	3.554534317738	1
8	3189	3.560276361709	3
8	3194	3.560322361709	1
8	3211	3.564589729403	3
8	3216	3.564635729403	1
8	3235	3.585794622161	3
8	3242	3.585840622161	1
8	3257	3.654488317738	0
8	3263	3.654534317738	1
8	3280	3.660276362352	3
8	3285	3.660322362352	1
8	3302	3.66458972754	3
8	3307	3.66463572754	1
8	3326	3.685794623818	3
8	3333	3.685840623818	1
8	3348	3.754488317738	0
8	3354	3.754534317738	1
8	3371	3.760276362996	3
8	3376	3.760322362996	1
8	3393	3.764589725648	3
8	3398	3.764635725648	1
8	3417	3.785794625477	3
8	3424	3.785840625477	1
8	3439	3.854488317738	0
8	3445	3.854534317738	1
8	3462	3.860276363641	3
8	3467	3.860322363641	1
8	3484	3.864589723721	3
8	3489	3.864635723721	1
8	3508	3.885794627136	3
8	3515	3.885840627136	1
8	3530	3.954488317738	0
8	3536	3.954534317738	1
8	3553	3.960276364287	3
8	3558	3.960322364287	1
8	3575	3.964589721739	3
8	3580	3.964635721739	1
8	3599	3.985794628795	3
8	3606	3.985840628795	1
8	3621	4.054488317738	0
8	3627	4.054534317738	1
8	3644	4.060276364935	3
8	3649	4.060322364935	1
8	3666	4.064589719727	3
8	3671	4.064635719727	1
8	3690	4.085794630454	3
8	3697	4.085840630454	1
8	3712	4.154488317738	0
8	3718	4.154534317738	1
8	3735	4.160276365583	3
8	3740	4.160322365583	1
8	3757	4.164589717685	3
8	3762	4.164635717685	1
8	3781	4.185794632115	3
8	3788	4.185840632115	1
8	3803	4.254488317738	0
8	3809	4.254534317738	1
8	3826	4.260276366232	3
8	3831	4.260322366232	1
8	3848	4.264589715619	3
8	3853	4.264635715619	1
8	3872	4.285794633775	3
8	3879	4.285840633775	1
8	3894	4.354488317738	0
8	3900	4.354534317738	1
8	3917	4.360276366882	3
8	3922	4.360322366882	1
8	3939	4.364589713511	3
8	3944	4.364635713511	1
8	3963	4.385794635436	3
8	3970	4.385840635436	1
8	3985	4.454488317738	0
8	3991	4.454534317738	1
8	4008	4.460276367532	3
8	4013	4.460322367532	1
8	4030	4.464589711373	3
8	4035	4.464635711373	1
8	4054	4.485794637097	3
8	4061	4.485840637097	1
8	4076	4.554488317738	0
8	4082	4.554534317738	1
8	4099	4.560276368184	3
8	4104	4.560322368184	1
8	4121	4.564589709207	3
8	4126	4.564635709207	1
8	4145	4.585794638758	3
8	4152	4.585840638758	1
8	4167	4.654488317738	0
8	4173	4.654534317738	1
8	4190	4.660276368836	3
8	4195	4.660322368836	1
8	4212	4.664589707002	3
8	4217	4.664635707002	1
8	4236	4.68579464042	3
8	4243	4.68584064042	1
8	4258	4.754488317738	0
8	4264	4.754534317738	1
8	4281	4.760276369488	3
8	4286	4.760322369488	1
8	4303	4.764589704761	3
8	4308	4.764635704761	1
8	4327	4.785794642082	3
8	4334	4.785840642082	1
8	4349	4.854488317738	0
8	4355	4.854534317738	1
8	4372	4.860276370141	3
8	4377	4.860322370141	1
8	4394	4.864589702494	3
8	4399	4.864635702494	1
8	4418	4.885794643744	3
8	4425	4.885840643744	1
8	4440	4.954488317738	0
8	4446	4.954534317738	1
8	4463	4.960276370795	3
8	4468	4.960322370795	1
8	4485	4.964589700198	3
8	4490	4.964635700198	1
8	4509	4.985794645406	3
8	4516	4.985840645406	1
8	4531	5.054488317738	0
8	4537	5.054534317738	1
8	4554	5.060276371449	3
8	4559	5.060322371449	1
8	4576	5.064589697857	3
8	4581	5.064635697857	1
8	4600	5.085794647069	3
8	4607	5.085840647069	1
8	4627	5.139610179055	3
8	4635	5.139656179055	1
8	4650	5.154488317738	0
8	4657	5.154534317738	1
8	4677	5.160276372104	3
8	4683	5.160322372104	1
8	4704	5.164589695491	3
8	4712	5.164635695491	1
8	4731	5.185794648732	3
8	4739	5.185840648732	1
8	4760	5.239610178985	3
8	4768	5.239656178985	1
8	4783	5.254488317738	0
8	4790	5.254534317738	1
8	4810	5.260276372759	3
8	4816	5.260322372759	1
8	4837	5.2645896931	3
8	4845	5.2646356931	1
8	4864	5.285794650395	3
8	4872	5.285840650395	1
8	4893	5.339610178846	3
8	4901	5.339656178846	1
8	4916	5.354488317738	0
8	4923	5.354534317738	1
8	4943	5.360276373415	3
8	4949	5.360322373415	1
8	4970	5.364589690668	3
8	4978	5.364635690668	1
8	4997	5.385794652058	3
8	5005	5.385840652058	1
8	5026	5.439610178643	3
8	5034	5.439656178643	1
8	5049	5.454488317738	0
8	5056	5.454534317738	1
8	5076	5.460276374071	3
8	5082	5.460322374071	1
8	5103	5.464589688224	3
8	5111	5.464635688224	1
8	5130	5.485794653721	3
8	5138	5.485840653721	1
8	5159	5.53961017837	3
8	5167	5.53965617837	1
8	5182	5.554488317738	0
8	5189	5.554534317738	1
8	5209	5.560276374727	3
8	5215	5.560322374727	1
8	5236	5.564589685754	3
8	5244	5.564635685754	1
8	5263	5.585794655385	3
8	5271	5.585840655385	1
8	5292	5.639610178032	3
8	5300	5.639656178032	1
8	5315	5.654488317738	0
8	5322	5.654534317738	1
8	5342	5.660276375384	3
8	5348	5.660322375384	1
8	5369	5.664589683258	3
8	5377	5.664635683258	1
8	5396	5.685794657048	3
8	5404	5.685840657048	1
8	5425	5.739610177626	3
8	5433	5.739656177626	1
8	5448	5.754488317738	0
8	5455	5.754534317738	1
8	5475	5.760276376041	3
8	5481	5.760322376041	1
8	5502	5.764589680734	3
8	5510	5.764635680734	1
8	5529	5.785794658712	3
8	5537	5.785840658712	1
8	5558	5.839610177165	3
8	5566	5.839656177165	1
8	5581	5.854488317738	0
8	5588	5.854534317738	1
8	5608	5.860276376699	3
8	5614	5.860322376699	1
8	5635	5.864589678198	3
8	5643	5.864635678198	1
8	5662	5.885794660376	3
8	5670	5.885840660376	1
8	5691	5.939610176639	3
8	5699	5.939656176639	1
8	5714	5.954488317738	0
8	5721	5.954534317738	1
8	5741	5.960276377356	3
8	5747	5.960322377356	1
8	5768	5.964589675643	3
8	5776	5.964635675643	1
8	5795	5.98579466204	3
8	5803	5.98584066204	1
8	5824	6.039610176044	3
8	5832	6.039656176044	1
8	5847	6.054488317738	0
8	5854	6.054534317738	1
8	5874	6.060276378015	3
8	5880	6.060322378015	1
8	5901	6.064589673074	3
8	5909	6.064635673074	1
8	5928	6.085794663704	3
8	5936	6.085840663704	1
8	5957	6.139610175389	3
8	5965	6.139656175389	1
8	5980	6.154488317738	0
8	5987	6.154534317738	1
8	6007	6.160276378673	3
8	6013	6.160322378673	1
8	6034	6.164589670479	3
8	6042	6.164635670479	1
8	6061	6.185794665368	3
8	6069	6.185840665368	1
8	6090	6.239610174668	3
8	6098	6.239656174668	1
8	6113	6.254488317738	0
8	6120	6.254534317738	1
8	6140	6.260276379332	3
8	6146	6.260322379332	1
8	6167	6.264589667877	3
8	6175	6.264635667877	1
8	6194	6.285794667033	3
8	6202	6.285840667033	1
8	6223	6.339610173884	3
8	6231	6.339656173884	1
8	6246	6.354488317738	0
8	6253	6.354534317738	1
8	6273	6.36027637999	3
8	6279	6.36032237999	1
8	6300	6.364589665271	3
8	6308	6.364635665271	1
8	6327	6.385794668697	3
8	6335	6.385840668697	1
8	6356	6.439610173043	3
8	6364	6.439656173043	1
8	6379	6.454488317738	0
8	6386	6.454534317738	1
8	6406	6.46027638065	3
8	6412	6.46032238065	1
8	6433	6.464589662664	3
8	6441	6.464635662664	1
8	6460	6.485794670362	3
8	6468	6.485840670362	1
8	6489	6.539610172163	3
8	6497	6.539656172163	1
8	6512	6.554488317738	0
8	6519	6.554534317738	1
8	6539	6.560276381309	3
8	6545	6.560322381309	1
8	6566	6.564589660066	3
8	6574	6.564635660066	1
8	6593	6.585794672027	3
8	6601	6.585840672027	1
8	6622	6.639610171229	3
8	6630	6.639656171229	1
8	6645	6.654488317738	0
8	6652	6.654534317738	1
8	6672	6.660276381969	3
8	6678	6.660322381969	1
8	6699	6.664589657475	3
8	6707	6.664635657475	1
8	6726	6.685794673691	3
8	6734	6.685840673691	1
8	6755	6.739610170246	3
8	6763	6.739656170246	1
8	6778	6.754488317738	0
8	6785	6.754534317738	1
8	6805	6.760276382628	3
8	6811	6.760322382628	1
8	6832	6.764589654885	3
8	6840	6.764635654885	1
8	6859	6.785794675356	3
8	6867	6.785840675356	1
8	6888	6.839610169225	3
8	6896	6.839656169225	1
8	6911	6.854488317738	0
8	6918	6.854534317738	1
8	6938	6.860276383289	3
8	6944	6.860322383289	1
8	6965	6.8645896523	3
8	6973	6.8646356523	1
8	6992	6.885794677021	3
8	7000	6.885840677021	1
8	7021	6.939610168138	3
8	7029	6.939656168138	1
8	7044	6.954488317738	0
8	7051	6.954534317738	1
8	7071	6.960276383949	3
8	7077	6.960322383949	1
8	7098	6.964589649733	3
8	7106	6.964635649733	1
8	7125	6.985794678686	3
8	7133	6.985840678686	1
8	7154	7.039610167017	3
8	7162	7.039656167017	1
8	7177	7.054488317738	0
8	7184	7.054534317738	1
8	7204	7.060276384609	3
8	7210	7.060322384609	1
8	7231	7.064589647171	3
8	7239	7.064635647171	1
8	7258	7.085794680351	3
8	7266	7.085840680351	1
8	7287	7.139610165849	3
8	7295	7.139656165849	1
8	7310	7.154488317738	0
8	7317	7.154534317738	1
8	7337	7.16027638527	3
8	7343	7.16032238527	1
8	7364	7.164589644633	3
8	7372	7.164635644633	1
8	7391	7.185794682017	3
8	7399	7.185840682017	1
8	7420	7.239610164618	3
8	7428	7.239656164618	1
8	7443	7.254488317738	0
8	7450	7.254534317738	1
8	7470	7.260276385931	3
8	7476	7.260322385931	1
8	7497	7.264589642123	3
8	7505	7.264635642123	1
8	7524	7.285794683682	3
8	7532	7.285840683682	1
8	7553	7.339610163331	3
8	7561	7.339656163331	1
8	7576	7.354488317738	0
8	7583	7.354534317738	1
8	7603	7.360276386592	3
8	7609	7.360322386592	1
8	7630	7.364589639643	3
8	7638	7.364635639643	1
8	7657	7.385794685347	3
8	7665	7.385840685347	1
8	7686	7.439610162002	3
8	7694	7.439656162002	1
8	7709	7.454488317738	0
8	7716	7.454534317738	1
8	7736	7.460276387253	3
8	7742	7.460322387253	1
8	7763	7.464589637229	3
8	7771	7.464635637229	1
8	7790	7.485794687013	3
8	7798	7.485840687013	1
8	7819	7.539610160627	3
8	7827	7.539656160627	1
8	7842	7.554488317738	0
8	7849	7.554534317738	1
8	7869	7.560276387914	3
8	7875	7.560322387914	1
8	7896	7.564589634888	3
8	7904	7.564635634888	1
8	7923	7.585794688678	3
8	7931	7.585840688678	1
8	7952	7.639610159196	3
8	7960	7.639656159196	1
8	7975	7.654488317738	0
8	7982	7.654534317738	1
8	8002	7.660276388575	3
8	8008	7.660322388575	1
8	8029	7.664589632621	3
8	8037	7.664635632621	1
8	8056	7.685794690344	3
8	8064	7.685840690344	1
8	8085	7.739610157699	3
8	8093	7.739656157699	1
8	8108	7.754488317738	0
8	8115	7.754534317738	1
8	8135	7.760276389237	3
8	8141	7.760322389237	1
8	8162	7.764589630431	3
8	8170	7.764635630431	1
8	8189	7.785794692009	3
8	8197	7.785840692009	1
8	8218	7.839610156158	3
8	8226	7.839656156158	1
8	8241	7.854488317738	0
8	8248	7.854534317738	1
8	8268	7.860276389899	3
8	8274	7.860322389899	1
8	8295	7.864589628316	3
8	8303	7.864635628316	1
8	8322	7.885794693675	3
8	8330	7.885840693675	1
8	8351	7.939610154585	3
8	8359	7.939656154585	1
8	8374	7.954488317738	0
8	8381	7.954534317738	1
8	8401	7.960276390561	3
8	8407	7.960322390561	1
8	8428	7.964589626288	3
8	8436	7.964635626288	1
8	8455	7.985794695341	3
8	8463	7.985840695341	1
8	8484	8.039610152969	3
8	8492	8.039656152969	1
8	8507	8.054488317738	0
8	8514	8.054534317738	1
8	8534	8.060276391223	3
8	8540	8.060322391223	1
8	8561	8.064589624325	3
8	8569	8.064635624325	1
8	8588	8.085794697006	3
8	8596	8.085840697006	1
[...]
59	7629	7.364589564872	0
59	7629	7.364589564872	0
59	7635	7.364635564872	0
59	7635	7.364635564872	0
59	7659	7.385795003896	0
59	7659	7.385795003896	0
59	7671	7.385841003896	0
59	7671	7.385841003896	0
59	7683	7.439609827823	0
59	7683	7.439609827823	0
59	7690	7.439655827823	0
59	7690	7.439655827823	0
59	7714	7.454488651917	0
59	7714	7.454488651917	0
59	7726	7.454534651917	0
59	7726	7.454534651917	0
59	7739	7.460276712948	0
59	7739	7.460276712948	0
59	7751	7.460322712948	0
59	7751	7.460322712948	0
59	7762	7.464589567875	0
59	7762	7.464589567875	0
59	7768	7.464635567875	0
59	7768	7.464635567875	0
59	7792	7.485795003931	0
59	7792	7.485795003931	0
59	7804	7.485841003931	0
59	7804	7.485841003931	0
59	7816	7.539609827823	0
59	7816	7.539609827823	0
59	7823	7.539655827823	0
59	7823	7.539655827823	0
59	7847	7.554488650542	0
59	7847	7.554488650542	0
59	7859	7.554534650542	0
59	7859	7.554534650542	0
59	7872	7.560276712072	0
59	7872	7.560276712072	0
59	7884	7.560322712072	0
59	7884	7.560322712072	0
59	7895	7.564589570809	0
59	7895	7.564589570809	0
59	7901	7.564635570809	0
59	7901	7.564635570809	0
59	7925	7.585795003912	0
59	7925	7.585795003912	0
59	7937	7.585841003912	0
59	7937	7.585841003912	0
59	7949	7.639609827823	0
59	7949	7.639609827823	0
59	7956	7.639655827823	0
59	7956	7.639655827823	0
59	7980	7.654488649111	0
59	7980	7.654488649111	0
59	7992	7.654534649111	0
59	7992	7.654534649111	0
59	8005	7.660276711136	0
59	8005	7.660276711136	0
59	8017	7.660322711136	0
59	8017	7.660322711136	0
59	8028	7.664589573668	0
59	8028	7.664589573668	0
59	8034	7.664635573668	0
59	8034	7.664635573668	0
59	8058	7.685795003828	0
59	8058	7.685795003828	0
59	8070	7.685841003828	0
59	8070	7.685841003828	0
59	8082	7.739609827823	0
59	8082	7.739609827823	0
59	8089	7.739655827823	0
59	8089	7.739655827823	0
59	8113	7.754488647614	0
59	8113	7.754488647614	0
59	8125	7.754534647614	0
59	8125	7.754534647614	0
59	8138	7.760276710127	0
59	8138	7.760276710127	0
59	8150	7.760322710127	0
59	8150	7.760322710127	0
59	8161	7.764589576434	0
59	8161	7.764589576434	0
59	8167	7.764635576434	0
59	8167	7.764635576434	0
59	8191	7.785795003668	0
59	8191	7.785795003668	0
59	8203	7.785841003668	0
59	8203	7.785841003668	0
59	8215	7.839609827823	0
59	8215	7.839609827823	0
59	8222	7.839655827823	0
59	8222	7.839655827823	0
59	8246	7.854488646073	0
59	8246	7.854488646073	0
59	8258	7.854534646073	0
59	8258	7.854534646073	0
59	8271	7.86027670907	0
59	8271	7.86027670907	0
59	8283	7.86032270907	0
59	8283	7.86032270907	0
59	8294	7.864589579145	0
59	8294	7.864589579145	0
59	8300	7.864635579145	0
59	8300	7.864635579145	0
59	8324	7.885795003454	0
59	8324	7.885795003454	0
59	8336	7.885841003454	0
59	8336	7.885841003454	0
59	8348	7.939609827823	0
59	8348	7.939609827823	0
59	8355	7.939655827823	0
59	8355	7.939655827823	0
59	8379	7.9544886445	0
59	8379	7.9544886445	0
59	8391	7.9545346445	0
59	8391	7.9545346445	0
59	8404	7.960276707974	0
59	8404	7.960276707974	0
59	8416	7.960322707974	0
59	8416	7.960322707974	0
59	8427	7.964589581788	0
59	8427	7.964589581788	0
59	8433	7.964635581788	0
59	8433	7.964635581788	0
59	8457	7.985795003199	0
59	8457	7.985795003199	0
59	8469	7.985841003199	0
59	8469	7.985841003199	0
59	8481	8.039609827823	0
59	8481	8.039609827823	0
59	8488	8.039655827823	0
59	8488	8.039655827823	0
59	8512	8.054488642884	0
59	8512	8.054488642884	0
59	8524	8.054534642884	0
59	8524	8.054534642884	0
59	8537	8.06027670683	0
59	8537	8.06027670683	0
59	8549	8.06032270683	0
59	8549	8.06032270683	0
59	8560	8.064589584411	0
59	8560	8.064589584411	0
59	8566	8.064635584411	0
59	8566	8.064635584411	0
59	8590	8.085795002893	0
59	8590	8.085795002893	0
59	8602	8.085841002893	0
59	8602	8.085841002893	0
59	8614	8.139609827823	0
59	8614	8.139609827823	0
59	8621	8.139655827823	0
59	8621	8.139655827823	0
59	8645	8.154488641224	0
59	8645	8.154488641224	0
59	8657	8.154534641224	0
59	8657	8.154534641224	0
59	8670	8.160276705637	0
59	8670	8.160276705637	0
59	8682	8.160322705637	0
59	8682	8.160322705637	0
59	8693	8.16458958697	0
59	8693	8.16458958697	0
59	8699	8.16463558697	0
59	8699	8.16463558697	0
59	8723	8.185795002533	0
59	8723	8.185795002533	0
59	8735	8.185841002533	0
59	8735	8.185841002533	0
59	8747	8.239609827823	0
59	8747	8.239609827823	0
59	8754	8.239655827823	0
59	8754	8.239655827823	0
59	8778	8.254488639535	0
59	8778	8.254488639535	0
59	8790	8.254534639535	0
59	8790	8.254534639535	0
59	8803	8.260276704409	0
59	8803	8.260276704409	0
59	8815	8.260322704409	0
59	8815	8.260322704409	0
59	8826	8.264589589487	0
59	8826	8.264589589487	0
59	8832	8.264635589487	0
59	8832	8.264635589487	0
59	8856	8.285795002134	0
59	8856	8.285795002134	0
59	8868	8.285841002134	0
59	8868	8.285841002134	0
59	8880	8.339609827823	0
59	8880	8.339609827823	0
59	8887	8.339655827823	0
59	8887	8.339655827823	0
59	8911	8.354488637801	0
59	8911	8.354488637801	0
59	8923	8.354534637801	0
59	8923	8.354534637801	0
59	8936	8.36027670313	0
59	8936	8.36027670313	0
59	8948	8.36032270313	0
59	8948	8.36032270313	0
59	8959	8.364589591922	0
59	8959	8.364589591922	0
59	8965	8.364635591922	0
59	8965	8.364635591922	0
59	8989	8.38579500168	0
59	8989	8.38579500168	0
59	9001	8.38584100168	0
59	9001	8.38584100168	0
59	9013	8.439609827823	0
59	9013	8.439609827823	0
59	9020	8.439655827823	0
59	9020	8.439655827823	0
59	9044	8.454488636019	0
59	9044	8.454488636019	0
59	9056	8.454534636019	0
59	9056	8.454534636019	0
59	9069	8.460276701794	0
59	9069	8.460276701794	0
59	9081	8.460322701794	0
59	9081	8.460322701794	0
59	9092	8.464589594305	0
59	9092	8.464589594305	0
59	9098	8.464635594305	0
59	9098	8.464635594305	0
59	9122	8.485795001164	0
59	9122	8.485795001164	0
59	9134	8.485841001164	0
59	9134	8.485841001164	0
59	9146	8.539609827823	0
59	9146	8.539609827823	0
59	9153	8.539655827823	0
59	9153	8.539655827823	0
59	9177	8.55448863419	0
59	9177	8.55448863419	0
59	9189	8.55453463419	0
59	9189	8.55453463419	0
59	9202	8.560276700405	0
59	9202	8.560276700405	0
59	9214	8.560322700405	0
59	9214	8.560322700405	0
59	9225	8.564589596613	0
59	9225	8.564589596613	0
59	9231	8.564635596613	0
59	9231	8.564635596613	0
59	9255	8.585795000589	0
59	9255	8.585795000589	0
59	9267	8.585841000589	0
59	9267	8.585841000589	0
59	9279	8.639609827823	0
59	9279	8.639609827823	0
59	9286	8.639655827823	0
59	9286	8.639655827823	0
59	9310	8.65448863232	0
59	9310	8.65448863232	0
59	9322	8.65453463232	0
59	9322	8.65453463232	0
59	9335	8.660276698967	0
59	9335	8.660276698967	0
59	9347	8.660322698967	0
59	9347	8.660322698967	0
59	9358	8.664589598871	0
59	9358	8.664589598871	0
59	9364	8.664635598871	0
59	9364	8.664635598871	0
59	9388	8.685794999961	0
59	9388	8.685794999961	0
59	9400	8.685840999961	0
59	9400	8.685840999961	0
59	9412	8.739609827823	0
59	9412	8.739609827823	0
59	9419	8.739655827823	0
59	9419	8.739655827823	0
59	9443	8.754488630401	0
59	9443	8.754488630401	0
59	9455	8.754534630401	0
59	9455	8.754534630401	0
60	4620	5.139609827823	48
60	4753	5.239609827823	48
60	4886	5.339609827823	48
60	5019	5.439609827823	48
60	5152	5.539609827823	48
60	5285	5.639609827823	48
60	5418	5.739609827823	48
60	5551	5.839609827823	48
60	5684	5.939609827823	48
60	5817	6.039609827823	48
60	5950	6.139609827823	48
60	6083	6.239609827823	48
60	6216	6.339609827823	48
60	6349	6.439609827823	48
60	6482	6.539609827823	48
60	6615	6.639609827823	48
60	6748	6.739609827823	48
60	6881	6.839609827823	48
60	7014	6.939609827823	48
60	7147	7.039609827823	48
60	7280	7.139609827823	48
60	7413	7.239609827823	48
60	7546	7.339609827823	48
60	7679	7.439609827823	48
60	7812	7.539609827823	48
60	7945	7.639609827823	48
60	8078	7.739609827823	48
60	8211	7.839609827823	48
60	8344	7.939609827823	48
60	8477	8.039609827823	48
60	8610	8.139609827823	48
60	8743	8.239609827823	48
60	8876	8.339609827823	48
60	9009	8.439609827823	48
60	9142	8.539609827823	48
60	9275	8.639609827823	48
60	9408	8.739609827823	48
61	4623	5.139609827823	48
61	4756	5.239609827823	48
61	4889	5.339609827823	48
61	5022	5.439609827823	48
61	5155	5.539609827823	48
61	5288	5.639609827823	48
61	5421	5.739609827823	48
61	5554	5.839609827823	48
61	5687	5.939609827823	48
61	5820	6.039609827823	48
61	5953	6.139609827823	48
61	6086	6.239609827823	48
61	6219	6.339609827823	48
61	6352	6.439609827823	48
61	6485	6.539609827823	48
61	6618	6.639609827823	48
61	6751	6.739609827823	48
61	6884	6.839609827823	48
61	7017	6.939609827823	48
61	7150	7.039609827823	48
61	7283	7.139609827823	48
61	7416	7.239609827823	48
61	7549	7.339609827823	48
61	7682	7.439609827823	48
61	7815	7.539609827823	48
61	7948	7.639609827823	48
61	8081	7.739609827823	48
61	8214	7.839609827823	48
61	8347	7.939609827823	48
61	8480	8.039609827823	48
61	8613	8.139609827823	48
61	8746	8.239609827823	48
61	8879	8.339609827823	48
61	9012	8.439609827823	48
61	9145	8.539609827823	48
61	9278	8.639609827823	48
61	9411	8.739609827823	48
62	4624	5.139609827823	1
62	4625	5.139609827823	2
62	4630	5.139655827823	1
62	4631	5.139655827823	0
62	4757	5.239609827823	1
62	4758	5.239609827823	2
62	4763	5.239655827823	1
62	4764	5.239655827823	0
62	4890	5.339609827823	1
62	4891	5.339609827823	2
62	4896	5.339655827823	1
62	4897	5.339655827823	0
62	5023	5.439609827823	1
62	5024	5.439609827823	2
62	5029	5.439655827823	1
62	5030	5.439655827823	0
62	5156	5.539609827823	1
62	5157	5.539609827823	2
62	5162	5.539655827823	1
62	5163	5.539655827823	0
62	5289	5.639609827823	1
62	5290	5.639609827823	2
62	5295	5.639655827823	1
62	5296	5.639655827823	0
62	5422	5.739609827823	1
62	5423	5.739609827823	2
62	5428	5.739655827823	1
62	5429	5.739655827823	0
62	5555	5.839609827823	1
62	5556	5.839609827823	2
62	5561	5.839655827823	1
62	5562	5.839655827823	0
62	5688	5.939609827823	1
62	5689	5.939609827823	2
62	5694	5.939655827823	1
62	5695	5.939655827823	0
62	5821	6.039609827823	1
62	5822	6.039609827823	2
62	5827	6.039655827823	1
62	5828	6.039655827823	0
62	5954	6.139609827823	1
62	5955	6.139609827823	2
62	5960	6.139655827823	1
62	5961	6.139655827823	0
62	6087	6.239609827823	1
62	6088	6.239609827823	2
62	6093	6.239655827823	1
62	6094	6.239655827823	0
62	6220	6.339609827823	1
62	6221	6.339609827823	2
62	6226	6.339655827823	1
62	6227	6.339655827823	0
62	6353	6.439609827823	1
62	6354	6.439609827823	2
62	6359	6.439655827823	1
62	6360	6.439655827823	0
62	6486	6.539609827823	1
62	6487	6.539609827823	2
62	6492	6.539655827823	1
62	6493	6.539655827823	0
62	6619	6.639609827823	1
62	6620	6.639609827823	2
62	6625	6.639655827823	1
62	6626	6.639655827823	0
62	6752	6.739609827823	1
62	6753	6.739609827823	2
62	6758	6.739655827823	1
62	6759	6.739655827823	0
62	6885	6.839609827823	1
62	6886	6.839609827823	2
62	6891	6.839655827823	1
62	6892	6.839655827823	0
62	7018	6.939609827823	1
62	7019	6.939609827823	2
62	7024	6.939655827823	1
62	7025	6.939655827823	0
62	7151	7.039609827823	1
62	7152	7.039609827823	2
62	7157	7.039655827823	1
62	7158	7.039655827823	0
62	7284	7.139609827823	1
62	7285	7.139609827823	2
62	7290	7.139655827823	1
62	7291	7.139655827823	0
62	7417	7.239609827823	1
62	7418	7.239609827823	2
62	7423	7.239655827823	1
62	7424	7.239655827823	0
62	7550	7.339609827823	1
62	7551	7.339609827823	2
62	7556	7.339655827823	1
62	7557	7.339655827823	0
62	7683	7.439609827823	1
62	7684	7.439609827823	2
62	7689	7.439655827823	1
62	7690	7.439655827823	0
62	7816	7.539609827823	1
62	7817	7.539609827823	2
62	7822	7.539655827823	1
62	7823	7.539655827823	0
62	7949	7.639609827823	1
62	7950	7.639609827823	2
62	7955	7.639655827823	1
62	7956	7.639655827823	0
62	8082	7.739609827823	1
62	8083	7.739609827823	2
62	8088	7.739655827823	1
62	8089	7.739655827823	0
62	8215	7.839609827823	1
62	8216	7.839609827823	2
62	8221	7.839655827823	1
62	8222	7.839655827823	0
62	8348	7.939609827823	1
62	8349	7.939609827823	2
62	8354	7.939655827823	1
62	8355	7.939655827823	0
62	8481	8.039609827823	1
62	8482	8.039609827823	2
62	8487	8.039655827823	1
62	8488	8.039655827823	0
62	8614	8.139609827823	1
62	8615	8.139609827823	2
62	8620	8.139655827823	1
62	8621	8.139655827823	0
62	8747	8.239609827823	1
62	8748	8.239609827823	2
62	8753	8.239655827823	1
62	8754	8.239655827823	0
62	8880	8.339609827823	1
62	8881	8.339609827823	2
62	8886	8.339655827823	1
62	8887	8.339655827823	0
62	9013	8.439609827823	1
62	9014	8.439609827823	2
62	9019	8.439655827823	1
62	9020	8.439655827823	0
62	9146	8.539609827823	1
62	9147	8.539609827823	2
62	9152	8.539655827823	1
62	9153	8.539655827823	0
62	9279	8.639609827823	1
62	9280	8.639609827823	2
62	9285	8.639655827823	1
62	9286	8.639655827823	0
62	9412	8.739609827823	1
62	9413	8.739609827823	2
62	9418	8.739655827823	1
62	9419	8.739655827823	0
63	4668	5.15453466897	48
63	4693	5.160322717524	48
63	4710	5.164635496815	48
63	4746	5.185840988105	48
63	4801	5.2545346689	48
63	4826	5.260322718026	48
63	4843	5.264635500012	48
63	4879	5.285840989516	48
63	4934	5.354534668761	48
63	4959	5.360322718457	48
63	4976	5.364635503208	48
63	5012	5.385840990855	48
63	5067	5.454534668558	48
63	5092	5.460322718822	48
63	5109	5.464635506372	48
63	5145	5.485840992126	48
63	5200	5.554534668285	48
63	5225	5.560322719114	48
63	5242	5.564635509516	48
63	5278	5.585840993323	48
63	5333	5.654534667947	48
63	5358	5.66032271934	48
63	5375	5.664635512651	48
63	5411	5.685840994451	48
63	5466	5.754534667541	48
63	5491	5.760322719495	48
63	5508	5.764635515779	48
63	5544	5.785840995507	48
63	5599	5.85453466708	48
63	5624	5.860322719593	48
63	5641	5.864635518895	48
63	5677	5.885840996504	48
63	5732	5.954534666554	48
63	5757	5.960322719623	48
63	5774	5.964635521998	48
63	5810	5.985840997431	48
63	5865	6.054534665959	48
63	5890	6.060322719582	48
63	5907	6.064635525082	48
63	5943	6.085840998285	48
63	5998	6.154534665304	48
63	6023	6.160322719477	48
63	6040	6.164635528177	48
63	6076	6.185840999073	48
63	6131	6.254534664583	48
63	6156	6.260322719303	48
63	6173	6.264635531252	48
63	6209	6.285840999789	48
63	6264	6.354534663799	48
63	6289	6.360322719063	48
63	6306	6.364635534311	48
63	6342	6.385841000437	48
63	6397	6.454534662958	48
63	6422	6.460322718763	48
63	6439	6.464635537359	48
63	6475	6.485841001022	48
63	6530	6.554534662078	48
63	6555	6.560322718421	48
63	6572	6.564635540405	48
63	6608	6.585841001564	48
63	6663	6.654534661144	48
63	6688	6.660322718022	48
63	6705	6.664635543442	48
63	6741	6.685841002047	48
63	6796	6.754534660161	48
63	6821	6.760322717572	48
63	6838	6.764635546489	48
63	6874	6.785841002475	48
63	6929	6.85453465914	48
63	6954	6.86032271708	48
63	6971	6.864635549557	48
63	7007	6.885841002861	48
63	7062	6.954534658053	48
63	7087	6.960322716518	48
63	7104	6.964635552599	48
63	7140	6.985841003173	48
63	7195	7.054534656932	48
63	7220	7.060322715918	48
63	7237	7.06463555568	48
63	7273	7.085841003444	48
63	7328	7.154534655764	48
63	7353	7.160322715268	48
63	7370	7.16463555876	48
63	7406	7.185841003664	48
63	7461	7.254534654533	48
63	7486	7.26032271455	48
63	7503	7.264635561819	48
63	7539	7.285841003812	48
63	7594	7.354534653246	48
63	7619	7.360322713772	48
63	7636	7.364635564872	48
63	7672	7.385841003896	48
63	7727	7.454534651917	48
63	7752	7.460322712948	48
63	7769	7.464635567875	48
63	7805	7.485841003931	48
63	7860	7.554534650542	48
63	7885	7.560322712072	48
63	7902	7.564635570809	48
63	7938	7.585841003912	48
63	7993	7.654534649111	48
63	8018	7.660322711136	48
63	8035	7.664635573668	48
63	8071	7.685841003828	48
63	8126	7.754534647614	48
63	8151	7.760322710127	48
63	8168	7.764635576434	48
63	8204	7.785841003668	48
63	8259	7.854534646073	48
63	8284	7.86032270907	48
63	8301	7.864635579145	48
63	8337	7.885841003454	48
63	8392	7.9545346445	48
63	8417	7.960322707974	48
63	8434	7.964635581788	48
63	8470	7.985841003199	48
63	8525	8.054534642884	48
63	8550	8.06032270683	48
63	8567	8.064635584411	48
63	8603	8.085841002893	48
63	8658	8.154534641224	48
63	8683	8.160322705637	48
63	8700	8.16463558697	48
63	8736	8.185841002533	48
63	8791	8.254534639535	48
63	8816	8.260322704409	48
63	8833	8.264635589487	48
63	8869	8.285841002134	48
63	8924	8.354534637801	48
63	8949	8.36032270313	48
63	8966	8.364635591922	48
63	9002	8.38584100168	48
63	9057	8.454534636019	48
63	9082	8.460322701794	48
63	9099	8.464635594305	48
63	9135	8.485841001164	48
63	9190	8.55453463419	48
63	9215	8.560322700405	48
63	9232	8.564635596613	48
63	9268	8.585841000589	48
63	9323	8.65453463232	48
63	9348	8.660322698967	48
63	9365	8.664635598871	48
63	9401	8.685840999961	48
63	9456	8.754534630401	48
64	4668	5.15453466897	48
64	4693	5.160322717524	48
64	4710	5.164635496815	48
64	4746	5.185840988105	48
64	4801	5.2545346689	48
64	4826	5.260322718026	48
64	4843	5.264635500012	48
64	4879	5.285840989516	48
64	4934	5.354534668761	48
64	4959	5.360322718457	48
64	4976	5.364635503208	48
64	5012	5.385840990855	48
64	5067	5.454534668558	48
64	5092	5.460322718822	48
64	5109	5.464635506372	48
64	5145	5.485840992126	48
64	5200	5.554534668285	48
64	5225	5.560322719114	48
64	5242	5.564635509516	48
64	5278	5.585840993323	48
64	5333	5.654534667947	48
64	5358	5.66032271934	48
64	5375	5.664635512651	48
64	5411	5.685840994451	48
64	5466	5.754534667541	48
64	5491	5.760322719495	48
64	5508	5.764635515779	48
64	5544	5.785840995507	48
64	5599	5.85453466708	48
64	5624	5.860322719593	48
64	5641	5.864635518895	48
64	5677	5.885840996504	48
64	5732	5.954534666554	48
64	5757	5.960322719623	48
64	5774	5.964635521998	48
64	5810	5.985840997431	48
64	5865	6.054534665959	48
64	5890	6.060322719582	48
64	5907	6.064635525082	48
64	5943	6.085840998285	48
64	5998	6.154534665304	48
64	6023	6.160322719477	48
64	6040	6.164635528177	48
64	6076	6.185840999073	48
64	6131	6.254534664583	48
64	6156	6.260322719303	48
64	6173	6.264635531252	48
64	6209	6.285840999789	48
64	6264	6.354534663799	48
64	6289	6.360322719063	48
64	6306	6.364635534311	48
64	6342	6.385841000437	48
64	6397	6.454534662958	48
64	6422	6.460322718763	48
64	6439	6.464635537359	48
64	6475	6.485841001022	48
64	6530	6.554534662078	48
64	6555	6.560322718421	48
64	6572	6.564635540405	48
64	6608	6.585841001564	48
64	6663	6.654534661144	48
64	6688	6.660322718022	48
64	6705	6.664635543442	48
64	6741	6.685841002047	48
64	6796	6.754534660161	48
64	6821	6.760322717572	48
64	6838	6.764635546489	48
64	6874	6.785841002475	48
64	6929	6.85453465914	48
64	6954	6.86032271708	48
64	6971	6.864635549557	48
64	7007	6.885841002861	48
64	7062	6.954534658053	48
64	7087	6.960322716518	48
64	7104	6.964635552599	48
64	7140	6.985841003173	48
64	7195	7.054534656932	48
64	7220	7.060322715918	48
64	7237	7.06463555568	48
64	7273	7.085841003444	48
64	7328	7.154534655764	48
64	7353	7.160322715268	48
64	7370	7.16463555876	48
64	7406	7.185841003664	48
64	7461	7.254534654533	48
64	7486	7.26032271455	48
64	7503	7.264635561819	48
64	7539	7.285841003812	48
64	7594	7.354534653246	48
64	7619	7.360322713772	48
64	7636	7.364635564872	48
64	7672	7.385841003896	48
64	7727	7.454534651917	48
64	7752	7.460322712948	48
64	7769	7.464635567875	48
64	7805	7.485841003931	48
64	7860	7.554534650542	48
64	7885	7.560322712072	48
64	7902	7.564635570809	48
64	7938	7.585841003912	48
64	7993	7.654534649111	48
64	8018	7.660322711136	48
64	8035	7.664635573668	48
64	8071	7.685841003828	48
64	8126	7.754534647614	48
64	8151	7.760322710127	48
64	8168	7.764635576434	48
64	8204	7.785841003668	48
64	8259	7.854534646073	48
64	8284	7.86032270907	48
64	8301	7.864635579145	48
64	8337	7.885841003454	48
64	8392	7.9545346445	48
64	8417	7.960322707974	48
64	8434	7.964635581788	48
64	8470	7.985841003199	48
64	8525	8.054534642884	48
64	8550	8.06032270683	48
64	8567	8.064635584411	48
64	8603	8.085841002893	48
64	8658	8.154534641224	48
64	8683	8.160322705637	48
64	8700	8.16463558697	48
64	8736	8.185841002533	48
64	8791	8.254534639535	48
64	8816	8.260322704409	48
64	8833	8.264635589487	48
64	8869	8.285841002134	48
64	8924	8.354534637801	48
64	8949	8.36032270313	48
64	8966	8.364635591922	48
64	9002	8.38584100168	48
64	9057	8.454534636019	48
64	9082	8.460322701794	48
64	9099	8.464635594305	48
64	9135	8.485841001164	48
64	9190	8.55453463419	48
64	9215	8.560322700405	48
64	9232	8.564635596613	48
64	9268	8.585841000589	48
64	9323	8.65453463232	48
64	9348	8.660322698967	48
64	9365	8.664635598871	48
64	9401	8.685840999961	48
64	9456	8.754534630401	48

