version 2
run General-0-20200703-18:51:42-7160
attr configname General
attr datetime 20200703-18:51:42
attr experiment General
attr inifile omnetpp.ini
attr iterationvars ""
attr iterationvarsf ""
attr measurement ""
attr network Scenario
attr processid 7160
attr repetition 0
attr replication #0
attr resultdir results
attr runnumber 0
attr seedset 0
param Scenario.node[*].wlan[0].bitrate 6Mbps
param Scenario.node[*].wlan[0].radio.transmitter.power 2mW
param Scenario.ped[*].wlan[0].bitrate 6Mbps
param Scenario.ped[*].wlan[0].radio.transmitter.power 2mW
param Scenario.node[*].ac_wlan.interfaces "\"wlan0\""
param Scenario.ped[*].ac_wlan.interfaces "\"wlan0\""
param Scenario.node[*].mobilityType "\"VeinsInetMobility\""
param Scenario.node[*].mobility.constraintAreaMinX 0m
param Scenario.node[*].mobility.constraintAreaMinY 0m
param Scenario.node[*].mobility.constraintAreaMinZ 0m
param Scenario.node[*].mobility.constraintAreaMaxX 1000m
param Scenario.node[*].mobility.constraintAreaMaxY 1000m
param Scenario.node[*].mobility.constraintAreaMaxZ 0m
param Scenario.ped[*].mobilityType "\"VeinsInetMobility\""
param Scenario.ped[*].mobility.constraintAreaMinX 0m
param Scenario.ped[*].mobility.constraintAreaMinY 0m
param Scenario.ped[*].mobility.constraintAreaMinZ 0m
param Scenario.ped[*].mobility.constraintAreaMaxX 1000m
param Scenario.ped[*].mobility.constraintAreaMaxY 1000m
param Scenario.ped[*].mobility.constraintAreaMaxZ 0m
param Scenario.manager.updateInterval 0.1s
param Scenario.manager.host "\"localhost\""
param Scenario.manager.port 9999
param Scenario.manager.autoShutdown true
param Scenario.manager.launchConfig "xmldoc(\"square.launchd.xml\")"
param *.manager.moduleType "\"vtype0=fyp.simulations.singleSideWithPedestrians.Car pedestrian=fyp.simulations.singleSideWithPedestrians.pedestrian\""
param *.manager.moduleName "\"vtype0=node pedestrian=ped\""
param *.manager.moduleDisplayString "\"vtype0='i=veins/node/car;is=vs' pedestrian='i=veins/node/pedestrian;is=vs'\""

vector 0 Scenario.ped[0].wlan[0].radio radioMode:vector ETV
attr interpolationmode sample-hold
attr source radioModeChanged
attr title "Radio mode, vector"
vector 1 Scenario.ped[0].wlan[0].radio radioChannel:vector ETV
attr interpolationmode sample-hold
attr source radioChannelChanged
attr title "Radio channel, vector"
vector 2 Scenario.ped[0].wlan[0].radio receptionState:vector ETV
attr interpolationmode sample-hold
attr source receptionStateChanged
attr title "Radio reception state, vector"
vector 3 Scenario.ped[0].wlan[0].mac.dcf.channelAccess.contention state:vector ETV
attr interpolationmode none
attr source stateChanged
attr title "contention state, vector"
vector 4 Scenario.ped[0].wlan[0].mac.hcf.edca.edcaf[0].contention state:vector ETV
attr interpolationmode none
attr source stateChanged
attr title "contention state, vector"
vector 5 Scenario.ped[0].wlan[0].mac.hcf.edca.edcaf[1].contention state:vector ETV
attr interpolationmode none
attr source stateChanged
attr title "contention state, vector"
vector 6 Scenario.ped[0].wlan[0].mac.hcf.edca.edcaf[2].contention state:vector ETV
attr interpolationmode none
attr source stateChanged
attr title "contention state, vector"
vector 7 Scenario.ped[0].wlan[0].mac.hcf.edca.edcaf[3].contention state:vector ETV
attr interpolationmode none
attr source stateChanged
attr title "contention state, vector"
vector 8 Scenario.ped[0].wlan[0].agent sentRequest:vector ETV
attr title "sent requests, vector"
vector 9 Scenario.ped[0].wlan[0].mac rcvdPkFromHL:vector(packetBytes) ETV
attr interpolationmode none
attr source packetReceivedFromUpper
attr title "packets received from higher layer, vector(packetBytes)"
vector 10 Scenario.ped[0].wlan[0].mac sentDownPk:vector(packetBytes) ETV
attr interpolationmode none
attr source packetSentToLower
attr title "packets sent to lower layer, vector(packetBytes)"
vector 11 Scenario.ped[0].wlan[0].radio transmissionState:vector ETV
attr interpolationmode sample-hold
attr source transmissionStateChanged
attr title "Radio transmission state, vector"
vector 12 Scenario.ped[0].wlan[0].agent dropConfirm:vector ETV
attr title "dropped confirms, vector"
vector 13 Scenario.node[1].wlan[0].radio radioMode:vector ETV
attr interpolationmode sample-hold
attr source radioModeChanged
attr title "Radio mode, vector"
vector 14 Scenario.node[1].wlan[0].radio radioChannel:vector ETV
attr interpolationmode sample-hold
attr source radioChannelChanged
attr title "Radio channel, vector"
vector 15 Scenario.node[1].wlan[0].radio receptionState:vector ETV
attr interpolationmode sample-hold
attr source receptionStateChanged
attr title "Radio reception state, vector"
vector 16 Scenario.node[1].wlan[0].mac.dcf.channelAccess.contention state:vector ETV
attr interpolationmode none
attr source stateChanged
attr title "contention state, vector"
vector 17 Scenario.node[1].wlan[0].mac.hcf.edca.edcaf[0].contention state:vector ETV
attr interpolationmode none
attr source stateChanged
attr title "contention state, vector"
vector 18 Scenario.node[1].wlan[0].mac.hcf.edca.edcaf[1].contention state:vector ETV
attr interpolationmode none
attr source stateChanged
attr title "contention state, vector"
vector 19 Scenario.node[1].wlan[0].mac.hcf.edca.edcaf[2].contention state:vector ETV
attr interpolationmode none
attr source stateChanged
attr title "contention state, vector"
vector 20 Scenario.node[1].wlan[0].mac.hcf.edca.edcaf[3].contention state:vector ETV
attr interpolationmode none
attr source stateChanged
attr title "contention state, vector"
vector 21 Scenario.node[1].wlan[0].mac rcvdPkFromLL:vector(packetBytes) ETV
attr interpolationmode none
attr source packetReceivedFromLower
attr title "packets received from lower layer, vector(packetBytes)"
vector 22 Scenario.node[1].wlan[0].mac passedUpPk:vector(packetBytes) ETV
attr interpolationmode none
attr source packetSentToUpper
attr title "packets passed to higher layer, vector(packetBytes)"
vector 23 Scenario.node[1].wlan[0].agent sentRequest:vector ETV
attr title "sent requests, vector"
vector 24 Scenario.node[1].wlan[0].mac rcvdPkFromHL:vector(packetBytes) ETV
attr interpolationmode none
attr source packetReceivedFromUpper
attr title "packets received from higher layer, vector(packetBytes)"
vector 25 Scenario.node[1].wlan[0].mac sentDownPk:vector(packetBytes) ETV
attr interpolationmode none
attr source packetSentToLower
attr title "packets sent to lower layer, vector(packetBytes)"
vector 26 Scenario.node[1].wlan[0].radio transmissionState:vector ETV
attr interpolationmode sample-hold
attr source transmissionStateChanged
attr title "Radio transmission state, vector"
vector 27 Scenario.ped[0].wlan[0].mac rcvdPkFromLL:vector(packetBytes) ETV
attr interpolationmode none
attr source packetReceivedFromLower
attr title "packets received from lower layer, vector(packetBytes)"
vector 28 Scenario.ped[0].wlan[0].mac passedUpPk:vector(packetBytes) ETV
attr interpolationmode none
attr source packetSentToUpper
attr title "packets passed to higher layer, vector(packetBytes)"
vector 29 Scenario.node[1].wlan[0].agent dropConfirm:vector ETV
attr title "dropped confirms, vector"
vector 30 Scenario.ped[2].wlan[0].radio radioMode:vector ETV
attr interpolationmode sample-hold
attr source radioModeChanged
attr title "Radio mode, vector"
vector 31 Scenario.ped[2].wlan[0].radio radioChannel:vector ETV
attr interpolationmode sample-hold
attr source radioChannelChanged
attr title "Radio channel, vector"
vector 32 Scenario.ped[2].wlan[0].radio receptionState:vector ETV
attr interpolationmode sample-hold
attr source receptionStateChanged
attr title "Radio reception state, vector"
vector 33 Scenario.ped[2].wlan[0].mac.dcf.channelAccess.contention state:vector ETV
attr interpolationmode none
attr source stateChanged
attr title "contention state, vector"
vector 34 Scenario.ped[2].wlan[0].mac.hcf.edca.edcaf[0].contention state:vector ETV
attr interpolationmode none
attr source stateChanged
attr title "contention state, vector"
vector 35 Scenario.ped[2].wlan[0].mac.hcf.edca.edcaf[1].contention state:vector ETV
attr interpolationmode none
attr source stateChanged
attr title "contention state, vector"
vector 36 Scenario.ped[2].wlan[0].mac.hcf.edca.edcaf[2].contention state:vector ETV
attr interpolationmode none
attr source stateChanged
attr title "contention state, vector"
vector 37 Scenario.ped[2].wlan[0].mac.hcf.edca.edcaf[3].contention state:vector ETV
attr interpolationmode none
attr source stateChanged
attr title "contention state, vector"
vector 38 Scenario.ped[2].wlan[0].mac rcvdPkFromLL:vector(packetBytes) ETV
attr interpolationmode none
attr source packetReceivedFromLower
attr title "packets received from lower layer, vector(packetBytes)"
vector 39 Scenario.ped[2].wlan[0].mac passedUpPk:vector(packetBytes) ETV
attr interpolationmode none
attr source packetSentToUpper
attr title "packets passed to higher layer, vector(packetBytes)"
vector 40 Scenario.ped[2].wlan[0].agent sentRequest:vector ETV
attr title "sent requests, vector"
vector 41 Scenario.ped[2].wlan[0].mac rcvdPkFromHL:vector(packetBytes) ETV
attr interpolationmode none
attr source packetReceivedFromUpper
attr title "packets received from higher layer, vector(packetBytes)"
vector 42 Scenario.ped[2].wlan[0].mac sentDownPk:vector(packetBytes) ETV
attr interpolationmode none
attr source packetSentToLower
attr title "packets sent to lower layer, vector(packetBytes)"
vector 43 Scenario.ped[2].wlan[0].radio transmissionState:vector ETV
attr interpolationmode sample-hold
attr source transmissionStateChanged
attr title "Radio transmission state, vector"
vector 44 Scenario.ped[2].wlan[0].agent dropConfirm:vector ETV
attr title "dropped confirms, vector"
vector 45 Scenario.node[3].wlan[0].radio radioMode:vector ETV
attr interpolationmode sample-hold
attr source radioModeChanged
attr title "Radio mode, vector"
vector 46 Scenario.node[3].wlan[0].radio radioChannel:vector ETV
attr interpolationmode sample-hold
attr source radioChannelChanged
attr title "Radio channel, vector"
vector 47 Scenario.node[3].wlan[0].radio receptionState:vector ETV
attr interpolationmode sample-hold
attr source receptionStateChanged
attr title "Radio reception state, vector"
vector 48 Scenario.node[3].wlan[0].mac.dcf.channelAccess.contention state:vector ETV
attr interpolationmode none
attr source stateChanged
attr title "contention state, vector"
vector 49 Scenario.node[3].wlan[0].mac.hcf.edca.edcaf[0].contention state:vector ETV
attr interpolationmode none
attr source stateChanged
attr title "contention state, vector"
vector 50 Scenario.node[3].wlan[0].mac.hcf.edca.edcaf[1].contention state:vector ETV
attr interpolationmode none
attr source stateChanged
attr title "contention state, vector"
vector 51 Scenario.node[3].wlan[0].mac.hcf.edca.edcaf[2].contention state:vector ETV
attr interpolationmode none
attr source stateChanged
attr title "contention state, vector"
vector 52 Scenario.node[3].wlan[0].mac.hcf.edca.edcaf[3].contention state:vector ETV
attr interpolationmode none
attr source stateChanged
attr title "contention state, vector"
vector 53 Scenario.node[3].wlan[0].mac rcvdPkFromLL:vector(packetBytes) ETV
attr interpolationmode none
attr source packetReceivedFromLower
attr title "packets received from lower layer, vector(packetBytes)"
vector 54 Scenario.node[3].wlan[0].mac passedUpPk:vector(packetBytes) ETV
attr interpolationmode none
attr source packetSentToUpper
attr title "packets passed to higher layer, vector(packetBytes)"
vector 55 Scenario.node[3].wlan[0].agent sentRequest:vector ETV
attr title "sent requests, vector"
vector 56 Scenario.node[3].wlan[0].mac rcvdPkFromHL:vector(packetBytes) ETV
attr interpolationmode none
attr source packetReceivedFromUpper
attr title "packets received from higher layer, vector(packetBytes)"
vector 57 Scenario.node[3].wlan[0].mac sentDownPk:vector(packetBytes) ETV
attr interpolationmode none
attr source packetSentToLower
attr title "packets sent to lower layer, vector(packetBytes)"
vector 58 Scenario.node[3].wlan[0].radio transmissionState:vector ETV
attr interpolationmode sample-hold
attr source transmissionStateChanged
attr title "Radio transmission state, vector"
vector 59 Scenario.node[3].wlan[0].agent dropConfirm:vector ETV
attr title "dropped confirms, vector"
vector 60 Scenario.node[4].wlan[0].radio radioMode:vector ETV
attr interpolationmode sample-hold
attr source radioModeChanged
attr title "Radio mode, vector"
vector 61 Scenario.node[4].wlan[0].radio radioChannel:vector ETV
attr interpolationmode sample-hold
attr source radioChannelChanged
attr title "Radio channel, vector"
vector 62 Scenario.node[4].wlan[0].radio receptionState:vector ETV
attr interpolationmode sample-hold
attr source receptionStateChanged
attr title "Radio reception state, vector"
vector 63 Scenario.node[4].wlan[0].mac.dcf.channelAccess.contention state:vector ETV
attr interpolationmode none
attr source stateChanged
attr title "contention state, vector"
vector 64 Scenario.node[4].wlan[0].mac.hcf.edca.edcaf[0].contention state:vector ETV
attr interpolationmode none
attr source stateChanged
attr title "contention state, vector"
vector 65 Scenario.node[4].wlan[0].mac.hcf.edca.edcaf[1].contention state:vector ETV
attr interpolationmode none
attr source stateChanged
attr title "contention state, vector"
vector 66 Scenario.node[4].wlan[0].mac.hcf.edca.edcaf[2].contention state:vector ETV
attr interpolationmode none
attr source stateChanged
attr title "contention state, vector"
vector 67 Scenario.node[4].wlan[0].mac.hcf.edca.edcaf[3].contention state:vector ETV
attr interpolationmode none
attr source stateChanged
attr title "contention state, vector"
vector 68 Scenario.node[4].wlan[0].agent sentRequest:vector ETV
attr title "sent requests, vector"
vector 69 Scenario.node[4].wlan[0].mac rcvdPkFromLL:vector(packetBytes) ETV
attr interpolationmode none
attr source packetReceivedFromLower
attr title "packets received from lower layer, vector(packetBytes)"
vector 70 Scenario.node[4].wlan[0].mac passedUpPk:vector(packetBytes) ETV
attr interpolationmode none
attr source packetSentToUpper
attr title "packets passed to higher layer, vector(packetBytes)"
vector 71 Scenario.node[4].wlan[0].mac rcvdPkFromHL:vector(packetBytes) ETV
attr interpolationmode none
attr source packetReceivedFromUpper
attr title "packets received from higher layer, vector(packetBytes)"
vector 72 Scenario.node[4].wlan[0].mac sentDownPk:vector(packetBytes) ETV
attr interpolationmode none
attr source packetSentToLower
attr title "packets sent to lower layer, vector(packetBytes)"
vector 73 Scenario.node[4].wlan[0].radio transmissionState:vector ETV
attr interpolationmode sample-hold
attr source transmissionStateChanged
attr title "Radio transmission state, vector"
vector 74 Scenario.node[4].wlan[0].agent dropConfirm:vector ETV
attr title "dropped confirms, vector"
vector 75 Scenario.node[5].wlan[0].radio radioMode:vector ETV
attr interpolationmode sample-hold
attr source radioModeChanged
attr title "Radio mode, vector"
vector 76 Scenario.node[5].wlan[0].radio radioChannel:vector ETV
attr interpolationmode sample-hold
attr source radioChannelChanged
attr title "Radio channel, vector"
vector 77 Scenario.node[5].wlan[0].radio receptionState:vector ETV
attr interpolationmode sample-hold
attr source receptionStateChanged
attr title "Radio reception state, vector"
vector 78 Scenario.node[5].wlan[0].mac.dcf.channelAccess.contention state:vector ETV
attr interpolationmode none
attr source stateChanged
attr title "contention state, vector"
vector 79 Scenario.node[5].wlan[0].mac.hcf.edca.edcaf[0].contention state:vector ETV
attr interpolationmode none
attr source stateChanged
attr title "contention state, vector"
vector 80 Scenario.node[5].wlan[0].mac.hcf.edca.edcaf[1].contention state:vector ETV
attr interpolationmode none
attr source stateChanged
attr title "contention state, vector"
vector 81 Scenario.node[5].wlan[0].mac.hcf.edca.edcaf[2].contention state:vector ETV
attr interpolationmode none
attr source stateChanged
attr title "contention state, vector"
vector 82 Scenario.node[5].wlan[0].mac.hcf.edca.edcaf[3].contention state:vector ETV
attr interpolationmode none
attr source stateChanged
attr title "contention state, vector"
vector 83 Scenario.node[5].wlan[0].mac rcvdPkFromLL:vector(packetBytes) ETV
attr interpolationmode none
attr source packetReceivedFromLower
attr title "packets received from lower layer, vector(packetBytes)"
vector 84 Scenario.node[5].wlan[0].mac passedUpPk:vector(packetBytes) ETV
attr interpolationmode none
attr source packetSentToUpper
attr title "packets passed to higher layer, vector(packetBytes)"
vector 85 Scenario.node[5].wlan[0].agent sentRequest:vector ETV
attr title "sent requests, vector"
vector 86 Scenario.node[5].wlan[0].mac rcvdPkFromHL:vector(packetBytes) ETV
attr interpolationmode none
attr source packetReceivedFromUpper
attr title "packets received from higher layer, vector(packetBytes)"
vector 87 Scenario.node[5].wlan[0].mac sentDownPk:vector(packetBytes) ETV
attr interpolationmode none
attr source packetSentToLower
attr title "packets sent to lower layer, vector(packetBytes)"
vector 88 Scenario.node[5].wlan[0].radio transmissionState:vector ETV
attr interpolationmode sample-hold
attr source transmissionStateChanged
attr title "Radio transmission state, vector"
vector 89 Scenario.node[5].wlan[0].agent dropConfirm:vector ETV
attr title "dropped confirms, vector"
vector 90 Scenario.node[6].wlan[0].radio radioMode:vector ETV
attr interpolationmode sample-hold
attr source radioModeChanged
attr title "Radio mode, vector"
vector 91 Scenario.node[6].wlan[0].radio radioChannel:vector ETV
attr interpolationmode sample-hold
attr source radioChannelChanged
attr title "Radio channel, vector"
vector 92 Scenario.node[6].wlan[0].radio receptionState:vector ETV
attr interpolationmode sample-hold
attr source receptionStateChanged
attr title "Radio reception state, vector"
vector 93 Scenario.node[6].wlan[0].mac.dcf.channelAccess.contention state:vector ETV
attr interpolationmode none
attr source stateChanged
attr title "contention state, vector"
vector 94 Scenario.node[6].wlan[0].mac.hcf.edca.edcaf[0].contention state:vector ETV
attr interpolationmode none
attr source stateChanged
attr title "contention state, vector"
vector 95 Scenario.node[6].wlan[0].mac.hcf.edca.edcaf[1].contention state:vector ETV
attr interpolationmode none
attr source stateChanged
attr title "contention state, vector"
vector 96 Scenario.node[6].wlan[0].mac.hcf.edca.edcaf[2].contention state:vector ETV
attr interpolationmode none
attr source stateChanged
attr title "contention state, vector"
vector 97 Scenario.node[6].wlan[0].mac.hcf.edca.edcaf[3].contention state:vector ETV
attr interpolationmode none
attr source stateChanged
attr title "contention state, vector"
vector 98 Scenario.node[6].wlan[0].agent sentRequest:vector ETV
attr title "sent requests, vector"
vector 99 Scenario.node[6].wlan[0].mac rcvdPkFromLL:vector(packetBytes) ETV
attr interpolationmode none
attr source packetReceivedFromLower
attr title "packets received from lower layer, vector(packetBytes)"
vector 100 Scenario.node[6].wlan[0].mac passedUpPk:vector(packetBytes) ETV
attr interpolationmode none
attr source packetSentToUpper
attr title "packets passed to higher layer, vector(packetBytes)"
vector 101 Scenario.node[6].wlan[0].mac rcvdPkFromHL:vector(packetBytes) ETV
attr interpolationmode none
attr source packetReceivedFromUpper
attr title "packets received from higher layer, vector(packetBytes)"
vector 102 Scenario.node[6].wlan[0].mac sentDownPk:vector(packetBytes) ETV
attr interpolationmode none
attr source packetSentToLower
attr title "packets sent to lower layer, vector(packetBytes)"
vector 103 Scenario.node[6].wlan[0].radio transmissionState:vector ETV
attr interpolationmode sample-hold
attr source transmissionStateChanged
attr title "Radio transmission state, vector"
vector 104 Scenario.node[6].wlan[0].agent dropConfirm:vector ETV
attr title "dropped confirms, vector"
12	24	0.514644050691	1
12	41	0.764644050691	1
12	59	1.014644050691	1
12	76	1.264644050691	1
12	94	1.514644050691	1
12	111	1.764644050691	1
12	129	2.014644050691	1
12	156	2.264644050691	1
12	200	2.664644050691	1
12	244	3.064644050691	1
12	288	3.464644050691	1
12	332	3.864644050691	1
12	376	4.264644050691	1
12	420	4.664644050691	1
12	464	5.064644050691	1
12	540	5.464644050691	1
12	616	5.864644050691	1
12	692	6.264644050691	1
12	768	6.664644050691	1
12	844	7.064644050691	1
12	938	7.464644050691	1
12	1054	7.864644050691	1
12	1170	8.264644050691	1
12	1286	8.664644050691	1
12	1402	9.064644050691	1
12	1518	9.464644050691	1
12	1634	9.864644050691	1
12	1752	10.264644050691	1
12	1915	10.664644050691	1
12	2079	11.064644050691	1
12	2243	11.464644050691	1
12	2407	11.864644050691	1
12	2571	12.264644050691	1
12	2735	12.664644050691	1
12	2899	13.064644050691	1
12	3063	13.464644050691	1
12	3227	13.864644050691	1
12	3391	14.264644050691	1
12	3555	14.664644050691	1
12	3719	15.064644050691	1
12	3936	15.464644050691	1
12	4156	15.864644050691	1
12	4376	16.264644050691	1
12	4596	16.664644050691	1
12	4816	17.064644050691	1
12	5036	17.464644050691	1
12	5256	17.864644050691	1
12	5476	18.264644050691	1
12	5696	18.664644050691	1
12	5916	19.064644050691	1
12	6136	19.464644050691	1
12	6356	19.864644050691	1
12	6578	20.264644050691	1
12	6861	20.664644050691	1
12	7145	21.064644050691	1
12	7429	21.464644050691	1
12	7713	21.864644050691	1
12	7997	22.264644050691	1
12	8281	22.664644050691	1
12	8565	23.064644050691	1
12	8849	23.464644050691	1
12	9133	23.864644050691	1
12	9417	24.264644050691	1
12	9701	24.664644050691	1
12	9985	25.064644050691	1
12	10269	25.464644050691	1
12	10553	25.864644050691	1
12	10837	26.264644050691	1
12	11121	26.664644050691	1
12	11405	27.064644050691	1
12	11689	27.464644050691	1
12	11973	27.864644050691	1
12	12257	28.264644050691	1
12	12541	28.664644050691	1
12	12825	29.064644050691	1
12	13109	29.464644050691	1
12	13393	29.864644050691	1
12	13677	30.264644050691	1
12	13961	30.664644050691	1
12	14245	31.064644050691	1
8	6	0.264644050691	1
8	24	0.514644050691	1
8	41	0.764644050691	1
8	59	1.014644050691	1
8	76	1.264644050691	1
8	94	1.514644050691	1
8	111	1.764644050691	1
8	129	2.014644050691	1
8	156	2.264644050691	1
8	200	2.664644050691	1
8	244	3.064644050691	1
8	288	3.464644050691	1
8	332	3.864644050691	1
8	376	4.264644050691	1
8	420	4.664644050691	1
8	464	5.064644050691	1
8	540	5.464644050691	1
8	616	5.864644050691	1
8	692	6.264644050691	1
8	768	6.664644050691	1
8	844	7.064644050691	1
8	938	7.464644050691	1
8	1054	7.864644050691	1
8	1170	8.264644050691	1
8	1286	8.664644050691	1
8	1402	9.064644050691	1
8	1518	9.464644050691	1
8	1634	9.864644050691	1
8	1752	10.264644050691	1
8	1915	10.664644050691	1
8	2079	11.064644050691	1
8	2243	11.464644050691	1
8	2407	11.864644050691	1
8	2571	12.264644050691	1
8	2735	12.664644050691	1
8	2899	13.064644050691	1
8	3063	13.464644050691	1
8	3227	13.864644050691	1
8	3391	14.264644050691	1
8	3555	14.664644050691	1
8	3719	15.064644050691	1
8	3936	15.464644050691	1
8	4156	15.864644050691	1
8	4376	16.264644050691	1
8	4596	16.664644050691	1
8	4816	17.064644050691	1
8	5036	17.464644050691	1
8	5256	17.864644050691	1
8	5476	18.264644050691	1
8	5696	18.664644050691	1
8	5916	19.064644050691	1
8	6136	19.464644050691	1
8	6356	19.864644050691	1
8	6578	20.264644050691	1
8	6861	20.664644050691	1
8	7145	21.064644050691	1
8	7429	21.464644050691	1
8	7713	21.864644050691	1
8	7997	22.264644050691	1
8	8281	22.664644050691	1
8	8565	23.064644050691	1
8	8849	23.464644050691	1
8	9133	23.864644050691	1
8	9417	24.264644050691	1
8	9701	24.664644050691	1
8	9985	25.064644050691	1
8	10269	25.464644050691	1
8	10553	25.864644050691	1
8	10837	26.264644050691	1
8	11121	26.664644050691	1
8	11405	27.064644050691	1
8	11689	27.464644050691	1
8	11973	27.864644050691	1
8	12257	28.264644050691	1
8	12541	28.664644050691	1
8	12825	29.064644050691	1
8	13109	29.464644050691	1
8	13393	29.864644050691	1
8	13677	30.264644050691	1
8	13961	30.664644050691	1
8	14245	31.064644050691	1
9	12	0.364644050691	40
9	30	0.614644050691	40
9	47	0.864644050691	40
9	65	1.114644050691	40
9	82	1.364644050691	40
9	100	1.614644050691	40
9	117	1.864644050691	40
9	137	2.114644050691	40
9	176	2.364644050691	40
9	220	2.764644050691	40
9	264	3.164644050691	40
9	308	3.564644050691	40
9	352	3.964644050691	40
9	396	4.364644050691	40
9	440	4.764644050691	40
9	490	5.164644050691	40
9	569	5.564644050691	40
9	645	5.964644050691	40
9	721	6.364644050691	40
9	797	6.764644050691	40
9	879	7.164644050691	40
9	993	7.564644050691	40
9	1109	7.964644050691	40
9	1225	8.364644050691	40
9	1341	8.764644050691	40
9	1457	9.164644050691	40
9	1573	9.564644050691	40
9	1689	9.964644050691	40
9	1819	10.364644050691	40
9	1983	10.764644050691	40
9	2147	11.164644050691	40
9	2311	11.564644050691	40
9	2475	11.964644050691	40
9	2639	12.364644050691	40
9	2803	12.764644050691	40
9	2967	13.164644050691	40
9	3131	13.564644050691	40
9	3295	13.964644050691	40
9	3459	14.364644050691	40
9	3623	14.764644050691	40
9	3797	15.164644050691	40
9	4017	15.564644050691	40
9	4237	15.964644050691	40
9	4457	16.364644050691	40
9	4677	16.764644050691	40
9	4897	17.164644050691	40
9	5117	17.564644050691	40
9	5337	17.964644050691	40
9	5557	18.364644050691	40
9	5777	18.764644050691	40
9	5997	19.164644050691	40
9	6217	19.564644050691	40
9	6437	19.964644050691	40
9	6671	20.364644050691	40
9	6955	20.764644050691	40
9	7239	21.164644050691	40
9	7523	21.564644050691	40
9	7807	21.964644050691	40
9	8091	22.364644050691	40
9	8375	22.764644050691	40
9	8659	23.164644050691	40
9	8943	23.564644050691	40
9	9227	23.964644050691	40
9	9511	24.364644050691	40
9	9795	24.764644050691	40
9	10079	25.164644050691	40
9	10363	25.564644050691	40
9	10647	25.964644050691	40
9	10931	26.364644050691	40
9	11215	26.764644050691	40
9	11499	27.164644050691	40
9	11783	27.564644050691	40
9	12067	27.964644050691	40
9	12351	28.364644050691	40
9	12635	28.764644050691	40
9	12919	29.164644050691	40
9	13203	29.564644050691	40
9	13487	29.964644050691	40
9	13771	30.364644050691	40
9	14055	30.764644050691	40
9	14339	31.164644050691	40
28	172	2.327138453225	40
28	216	2.727138460284	40
28	260	3.127138467595	40
28	304	3.527138475303	40
28	348	3.92713848346	40
28	392	4.327138491915	40
28	436	4.727138500592	40
28	486	5.12713850951	40
28	530	5.370455488376	40
28	565	5.527138518845	40
28	602	5.620455501205	40
28	641	5.927138527524	40
28	678	6.020455517149	40
28	717	6.327138535206	40
28	754	6.420455531706	40
28	793	6.727138541795	40
28	830	6.820455544875	40
28	875	7.127138547411	40
28	920	7.220455556657	40
28	961	7.4936277117	40
28	989	7.527138551944	40
28	1034	7.620455567051	40
28	1077	7.893627728513	40
28	1105	7.927138555476	40
28	1150	8.020455576057	40
28	1193	8.293627744258	40
28	1218	8.327138557988	40
28	1266	8.420455583675	40
28	1309	8.693627758992	40
28	1334	8.727138559376	40
28	1382	8.820455589906	40
28	1425	9.093627772991	40
28	1450	9.127138560872	40
28	1498	9.220455596561	40
28	1541	9.493627787696	40
28	1566	9.527138562447	40
28	1614	9.620455599409	40
28	1657	9.893627794666	40
28	1682	9.927138556173	40
28	1730	10.020455591748	40
28	1783	10.293627791468	40
28	1806	10.327138547018	40
28	1867	10.383671039618	40
28	1894	10.420455578784	40
28	1947	10.693627786139	40
28	1970	10.727138541765	40
28	2031	10.783671041449	40
28	2058	10.820455566779	40
28	2111	11.093627781178	40
28	2134	11.127138543043	40
28	2195	11.183671043266	40
28	2222	11.220455557682	40
28	2275	11.493627776633	40
28	2301	11.527138550607	40
28	2359	11.583671045214	40
28	2386	11.620455551925	40
28	2439	11.893627772839	40
28	2465	11.927138560037	40
28	2523	11.983671047171	40
28	2550	12.020455549829	40
28	2603	12.293627769949	40
28	2629	12.327138562877	40
28	2687	12.383671049336	40
28	2711	12.42045555152	40
28	2767	12.69362776815	40
28	2793	12.727138560692	40
28	2851	12.783671051676	40
28	2875	12.820455556895	40
28	2931	13.093627767651	40
28	2957	13.127138560656	40
28	3015	13.183671054207	40
28	3039	13.220455565653	40
28	3095	13.49362776861	40
28	3121	13.527138560743	40
28	3179	13.583671057104	40
28	3203	13.620455577367	40
28	3259	13.893627771202	40
28	3285	13.927138560842	40
28	3343	13.983671060358	40
28	3367	14.020455591134	40
28	3423	14.293627775613	40
28	3449	14.327138560912	40
28	3507	14.383671064075	40
28	3531	14.420455601476	40
28	3587	14.693627782295	40
28	3613	14.727138560949	40
28	3671	14.783671068356	40
28	3695	14.820455603079	40
28	3751	15.093627791205	40
28	3780	15.127138561025	40
28	3853	15.183671073238	40
28	3878	15.220455600954	40
28	3913	15.229172802966	40
28	3972	15.493627802149	40
28	3999	15.527138561106	40
28	4073	15.583671078835	40
28	4101	15.620455600954	40
28	4133	15.629172814448	40
28	4192	15.893627814911	40
28	4219	15.927138561198	40
28	4293	15.983671085258	40
28	4321	16.020455600954	40
28	4353	16.029172825548	40
28	4412	16.293627829274	40
28	4439	16.327138561287	40
28	4513	16.383671092619	40
28	4541	16.420455601352	40
28	4573	16.42917283644	40
28	4632	16.693627846553	40
28	4659	16.727138563683	40
28	4733	16.783671101383	40
28	4761	16.820455603313	40
28	4793	16.829172844718	40
28	4852	17.093627857136	40
28	4879	17.127138561639	40
28	4953	17.183671102592	40
28	4981	17.220455598605	40
28	5013	17.229172840784	40
28	5072	17.493627849553	40
28	5099	17.527138553142	40
28	5173	17.583671095184	40
28	5201	17.620455585547	40
28	5233	17.629172826675	40
28	5292	17.893627832405	40
28	5316	17.927138544811	40
28	5393	17.983671087727	40
28	5418	18.020455572296	40
28	5453	18.029172812496	40
28	5512	18.293627817867	40
28	5536	18.327138542622	40
28	5613	18.383671083869	40
28	5638	18.420455561724	40
28	5673	18.429172798935	40
28	5732	18.693627804891	40
28	5756	18.727138546892	40
28	5833	18.783671083721	40
28	5858	18.82045555429	40
28	5890	18.829172786226	40
28	5952	19.09362779369	40
28	5979	19.127138555996	40
28	6053	19.183671087287	40
28	6078	19.22045555038	40
28	6110	19.229172774745	40
28	6172	19.493627784535	40
28	6199	19.527138563648	40
28	6273	19.583671094448	40
28	6298	19.620455550224	40
28	6330	19.62917276484	40
28	6389	19.893627777582	40
28	6419	19.927138563833	40
28	6493	19.983671102589	40
28	6518	20.02045555383	40
28	6550	20.029172756878	40
28	6616	20.293627772962	40
28	6650	20.327138562164	40
28	6729	20.377654974242	40
28	6768	20.383671102229	40
28	6795	20.420455560987	40
28	6834	20.42917275122	40
28	6900	20.693627770834	40
28	6934	20.72713856227	40
28	7013	20.77765496709	40
28	7052	20.783671094535	40
28	7079	20.820455571318	40
28	7115	20.829172748272	40
28	7184	21.093627771264	40
28	7218	21.127138562349	40
28	7297	21.177654960515	40
28	7336	21.183671088568	40
28	7363	21.220455584366	40
28	7399	21.229172748412	40
28	7468	21.493627774211	40
28	7502	21.527138562428	40
28	7578	21.577654954735	40
28	7620	21.583671084392	40
28	7647	21.620455597521	40
28	7683	21.629172751927	40
28	7752	21.893627779604	40
28	7786	21.927138562481	40
28	7862	21.977654949999	40
28	7904	21.983671082023	40
28	7931	22.020455603343	40
28	7970	22.029172759028	40
28	8036	22.29362778732	40
28	8070	22.327138562576	40
28	8146	22.377654946608	40
28	8188	22.383671081526	40
28	8215	22.42045560159	40
28	8257	22.4291727696	40
28	8323	22.693627797161	40
28	8354	22.727138562696	40
28	8430	22.77765494478	40
28	8472	22.783671082877	40
28	8499	22.820455600954	40
28	8541	22.829172783304	40
28	8607	23.093627808923	40
28	8638	23.127138562781	40
28	8714	23.17765494475	40
28	8756	23.183671086098	40
28	8786	23.220455600954	40
28	8825	23.22917279984	40
28	8891	23.49362782241	40
28	8922	23.52713856287	40
28	8998	23.577654946732	40
28	9040	23.583671091141	40
28	9070	23.620455600954	40
28	9109	23.629172818898	40
28	9175	23.893627837757	40
28	9206	23.927138564099	40
28	9285	23.977654949925	40
28	9324	23.983671098312	40
28	9354	24.020455602839	40
28	9393	24.029172839695	40
28	9459	24.29362785399	40
28	9490	24.327138565649	40
28	9569	24.37765494913	40
28	9608	24.383671104615	40
28	9638	24.420455601993	40
28	9677	24.429172853392	40
28	9740	24.693627857535	40
28	9774	24.72713855902	40
28	9850	24.777654937003	40
28	9892	24.783671099638	40
28	9922	24.820455592117	40
28	9961	24.82917285587	40
28	10024	25.093627842587	40
28	10058	25.127138549664	40
28	10134	25.17765492369	40
28	10176	25.183671091286	40
28	10206	25.220455578449	40
28	10245	25.229172849686	40
28	10308	25.493627826375	40
28	10339	25.527138544124	40
28	10415	25.577654912696	40
28	10460	25.583671085477	40
28	10487	25.620455566513	40
28	10529	25.629172831614	40
28	10592	25.893627812604	40
28	10623	25.927138544975	40
28	10699	25.977654903484	40
28	10744	25.983671083337	40
28	10771	26.020455557494	40
28	10810	26.029172811378	40
28	10876	26.293627800503	40
28	10910	26.327138552063	40
28	10983	26.377654896341	40
28	11028	26.38367108492	40
28	11055	26.420455551826	40
28	11094	26.429172793238	40
28	11160	26.693627790248	40
28	11194	26.727138561845	40
28	11267	26.777654891565	40
28	11312	26.783671090185	40
28	11339	26.820455549825	40
28	11378	26.829172777742	40
28	11444	27.093627782123	40
28	11478	27.127138566127	40
28	11551	27.177654889423	40
28	11596	27.183671098354	40
28	11623	27.220455551611	40
28	11662	27.229172765191	40
28	11728	27.493627776233	40
28	11762	27.527138564327	40
28	11835	27.577654889853	40
28	11880	27.583671104459	40
28	11907	27.620455557076	40
28	11946	27.629172755889	40
28	12012	27.893627772768	40
28	12046	27.927138563877	40
28	12119	27.97765489247	40
28	12164	27.983671100256	40
28	12191	28.020455565914	40
28	12230	28.029172750085	40
28	12296	28.293627771823	40
28	12330	28.327138563954	40
28	12403	28.377654897208	40
28	12448	28.383671092746	40
28	12475	28.420455577696	40
28	12511	28.429172747943	40
28	12580	28.693627773439	40
28	12614	28.727138564038	40
28	12687	28.777654904007	40
28	12732	28.783671087584	40
28	12759	28.820455591432	40
28	12795	28.829172749536	40
28	12864	29.093627777525	40
28	12898	29.127138564066	40
28	12971	29.177654912668	40
28	13016	29.183671084208	40
28	13043	29.220455601633	40
28	13082	29.229172754801	40
28	13148	29.493627784008	40
28	13182	29.527138564188	40
28	13255	29.577654923133	40
28	13297	29.58367108269	40
28	13327	29.620455603005	40
28	13366	29.629172763602	40
28	13435	29.893627792705	40
28	13466	29.927138564289	40
28	13539	29.977654936501	40
28	13581	29.983671083043	40
28	13611	30.020455600954	40
28	13653	30.029172775683	40
28	13719	30.293627803451	40
28	13750	30.32713856437	40
28	13823	30.377654944547	40
28	13865	30.38367108526	40
28	13895	30.420455600954	40
28	13937	30.429172790762	40
28	14003	30.693627816025	40
28	14034	30.727138564464	40
28	14110	30.777654945059	40
28	14152	30.78367108933	40
28	14182	30.820455600954	40
28	14221	30.829172808535	40
28	14287	31.093627830209	40
28	14318	31.127138564526	40
28	14394	31.177654944903	40
28	14436	31.183671095142	40
27	172	2.327138453225	40
27	216	2.727138460284	40
27	260	3.127138467595	40
27	304	3.527138475303	40
27	348	3.92713848346	40
27	392	4.327138491915	40
27	436	4.727138500592	40
27	486	5.12713850951	40
27	530	5.370455488376	40
27	565	5.527138518845	40
27	602	5.620455501205	40
27	641	5.927138527524	40
27	678	6.020455517149	40
27	717	6.327138535206	40
27	754	6.420455531706	40
27	793	6.727138541795	40
27	830	6.820455544875	40
27	875	7.127138547411	40
27	920	7.220455556657	40
27	961	7.4936277117	40
27	989	7.527138551944	40
27	1034	7.620455567051	40
27	1077	7.893627728513	40
27	1105	7.927138555476	40
27	1150	8.020455576057	40
27	1193	8.293627744258	40
27	1218	8.327138557988	40
27	1266	8.420455583675	40
27	1309	8.693627758992	40
27	1334	8.727138559376	40
27	1382	8.820455589906	40
27	1425	9.093627772991	40
27	1450	9.127138560872	40
27	1498	9.220455596561	40
27	1541	9.493627787696	40
27	1566	9.527138562447	40
27	1614	9.620455599409	40
27	1657	9.893627794666	40
27	1682	9.927138556173	40
27	1730	10.020455591748	40
27	1783	10.293627791468	40
27	1806	10.327138547018	40
27	1867	10.383671039618	40
27	1894	10.420455578784	40
27	1947	10.693627786139	40
27	1970	10.727138541765	40
27	2031	10.783671041449	40
27	2058	10.820455566779	40
27	2111	11.093627781178	40
27	2134	11.127138543043	40
27	2195	11.183671043266	40
27	2222	11.220455557682	40
27	2275	11.493627776633	40
27	2301	11.527138550607	40
27	2359	11.583671045214	40
27	2386	11.620455551925	40
27	2439	11.893627772839	40
27	2465	11.927138560037	40
27	2523	11.983671047171	40
27	2550	12.020455549829	40
27	2603	12.293627769949	40
27	2629	12.327138562877	40
27	2687	12.383671049336	40
27	2711	12.42045555152	40
27	2767	12.69362776815	40
27	2793	12.727138560692	40
27	2851	12.783671051676	40
27	2875	12.820455556895	40
27	2931	13.093627767651	40
27	2957	13.127138560656	40
27	3015	13.183671054207	40
27	3039	13.220455565653	40
27	3095	13.49362776861	40
27	3121	13.527138560743	40
27	3179	13.583671057104	40
27	3203	13.620455577367	40
27	3259	13.893627771202	40
27	3285	13.927138560842	40
27	3343	13.983671060358	40
27	3367	14.020455591134	40
27	3423	14.293627775613	40
27	3449	14.327138560912	40
27	3507	14.383671064075	40
27	3531	14.420455601476	40
27	3587	14.693627782295	40
27	3613	14.727138560949	40
27	3671	14.783671068356	40
27	3695	14.820455603079	40
27	3751	15.093627791205	40
27	3780	15.127138561025	40
27	3853	15.183671073238	40
27	3878	15.220455600954	40
27	3913	15.229172802966	40
27	3972	15.493627802149	40
27	3999	15.527138561106	40
27	4073	15.583671078835	40
27	4101	15.620455600954	40
27	4133	15.629172814448	40
27	4192	15.893627814911	40
27	4219	15.927138561198	40
27	4293	15.983671085258	40
27	4321	16.020455600954	40
27	4353	16.029172825548	40
27	4412	16.293627829274	40
27	4439	16.327138561287	40
27	4513	16.383671092619	40
27	4541	16.420455601352	40
27	4573	16.42917283644	40
27	4632	16.693627846553	40
27	4659	16.727138563683	40
27	4733	16.783671101383	40
27	4761	16.820455603313	40
27	4793	16.829172844718	40
27	4852	17.093627857136	40
27	4879	17.127138561639	40
27	4953	17.183671102592	40
27	4981	17.220455598605	40
27	5013	17.229172840784	40
27	5072	17.493627849553	40
27	5099	17.527138553142	40
27	5173	17.583671095184	40
27	5201	17.620455585547	40
27	5233	17.629172826675	40
27	5292	17.893627832405	40
27	5316	17.927138544811	40
27	5393	17.983671087727	40
27	5418	18.020455572296	40
27	5453	18.029172812496	40
27	5512	18.293627817867	40
27	5536	18.327138542622	40
27	5613	18.383671083869	40
27	5638	18.420455561724	40
27	5673	18.429172798935	40
27	5732	18.693627804891	40
27	5756	18.727138546892	40
27	5833	18.783671083721	40
27	5858	18.82045555429	40
27	5890	18.829172786226	40
27	5952	19.09362779369	40
27	5979	19.127138555996	40
27	6053	19.183671087287	40
27	6078	19.22045555038	40
27	6110	19.229172774745	40
27	6172	19.493627784535	40
27	6199	19.527138563648	40
27	6273	19.583671094448	40
27	6298	19.620455550224	40
27	6330	19.62917276484	40
27	6389	19.893627777582	40
27	6419	19.927138563833	40
27	6493	19.983671102589	40
27	6518	20.02045555383	40
27	6550	20.029172756878	40
27	6616	20.293627772962	40
27	6650	20.327138562164	40
27	6729	20.377654974242	40
27	6768	20.383671102229	40
27	6795	20.420455560987	40
27	6834	20.42917275122	40
27	6900	20.693627770834	40
27	6934	20.72713856227	40
27	7013	20.77765496709	40
27	7052	20.783671094535	40
27	7079	20.820455571318	40
27	7115	20.829172748272	40
27	7184	21.093627771264	40
27	7218	21.127138562349	40
27	7297	21.177654960515	40
27	7336	21.183671088568	40
27	7363	21.220455584366	40
27	7399	21.229172748412	40
27	7468	21.493627774211	40
27	7502	21.527138562428	40
27	7578	21.577654954735	40
27	7620	21.583671084392	40
27	7647	21.620455597521	40
27	7683	21.629172751927	40
27	7752	21.893627779604	40
27	7786	21.927138562481	40
27	7862	21.977654949999	40
27	7904	21.983671082023	40
27	7931	22.020455603343	40
27	7970	22.029172759028	40
27	8036	22.29362778732	40
27	8070	22.327138562576	40
27	8146	22.377654946608	40
27	8188	22.383671081526	40
27	8215	22.42045560159	40
27	8257	22.4291727696	40
27	8323	22.693627797161	40
27	8354	22.727138562696	40
27	8430	22.77765494478	40
27	8472	22.783671082877	40
27	8499	22.820455600954	40
27	8541	22.829172783304	40
27	8607	23.093627808923	40
27	8638	23.127138562781	40
27	8714	23.17765494475	40
27	8756	23.183671086098	40
27	8786	23.220455600954	40
27	8825	23.22917279984	40
27	8891	23.49362782241	40
27	8922	23.52713856287	40
27	8998	23.577654946732	40
27	9040	23.583671091141	40
27	9070	23.620455600954	40
27	9109	23.629172818898	40
27	9175	23.893627837757	40
27	9206	23.927138564099	40
27	9285	23.977654949925	40
27	9324	23.983671098312	40
27	9354	24.020455602839	40
27	9393	24.029172839695	40
27	9459	24.29362785399	40
27	9490	24.327138565649	40
27	9569	24.37765494913	40
27	9608	24.383671104615	40
27	9638	24.420455601993	40
27	9677	24.429172853392	40
27	9740	24.693627857535	40
27	9774	24.72713855902	40
27	9850	24.777654937003	40
27	9892	24.783671099638	40
27	9922	24.820455592117	40
27	9961	24.82917285587	40
27	10024	25.093627842587	40
27	10058	25.127138549664	40
27	10134	25.17765492369	40
27	10176	25.183671091286	40
27	10206	25.220455578449	40
27	10245	25.229172849686	40
27	10308	25.493627826375	40
27	10339	25.527138544124	40
27	10415	25.577654912696	40
27	10460	25.583671085477	40
27	10487	25.620455566513	40
27	10529	25.629172831614	40
27	10592	25.893627812604	40
27	10623	25.927138544975	40
27	10699	25.977654903484	40
27	10744	25.983671083337	40
27	10771	26.020455557494	40
27	10810	26.029172811378	40
27	10876	26.293627800503	40
27	10910	26.327138552063	40
27	10983	26.377654896341	40
27	11028	26.38367108492	40
27	11055	26.420455551826	40
27	11094	26.429172793238	40
27	11160	26.693627790248	40
27	11194	26.727138561845	40
27	11267	26.777654891565	40
27	11312	26.783671090185	40
27	11339	26.820455549825	40
27	11378	26.829172777742	40
27	11444	27.093627782123	40
27	11478	27.127138566127	40
27	11551	27.177654889423	40
27	11596	27.183671098354	40
27	11623	27.220455551611	40
27	11662	27.229172765191	40
27	11728	27.493627776233	40
27	11762	27.527138564327	40
27	11835	27.577654889853	40
27	11880	27.583671104459	40
27	11907	27.620455557076	40
27	11946	27.629172755889	40
27	12012	27.893627772768	40
27	12046	27.927138563877	40
27	12119	27.97765489247	40
27	12164	27.983671100256	40
27	12191	28.020455565914	40
27	12230	28.029172750085	40
27	12296	28.293627771823	40
27	12330	28.327138563954	40
27	12403	28.377654897208	40
27	12448	28.383671092746	40
27	12475	28.420455577696	40
27	12511	28.429172747943	40
27	12580	28.693627773439	40
27	12614	28.727138564038	40
27	12687	28.777654904007	40
27	12732	28.783671087584	40
27	12759	28.820455591432	40
27	12795	28.829172749536	40
27	12864	29.093627777525	40
27	12898	29.127138564066	40
27	12971	29.177654912668	40
27	13016	29.183671084208	40
27	13043	29.220455601633	40
27	13082	29.229172754801	40
27	13148	29.493627784008	40
27	13182	29.527138564188	40
27	13255	29.577654923133	40
27	13297	29.58367108269	40
27	13327	29.620455603005	40
27	13366	29.629172763602	40
27	13435	29.893627792705	40
27	13466	29.927138564289	40
27	13539	29.977654936501	40
27	13581	29.983671083043	40
27	13611	30.020455600954	40
27	13653	30.029172775683	40
27	13719	30.293627803451	40
27	13750	30.32713856437	40
27	13823	30.377654944547	40
27	13865	30.38367108526	40
27	13895	30.420455600954	40
27	13937	30.429172790762	40
27	14003	30.693627816025	40
27	14034	30.727138564464	40
27	14110	30.777654945059	40
27	14152	30.78367108933	40
27	14182	30.820455600954	40
27	14221	30.829172808535	40
27	14287	31.093627830209	40
27	14318	31.127138564526	40
27	14394	31.177654944903	40
27	14436	31.183671095142	40
10	15	0.364644050691	40
10	33	0.614644050691	40
10	50	0.864644050691	40
10	68	1.114644050691	40
10	85	1.364644050691	40
10	103	1.614644050691	40
10	120	1.864644050691	40
10	140	2.114644050691	40
10	179	2.364644050691	40
10	223	2.764644050691	40
10	267	3.164644050691	40
10	311	3.564644050691	40
10	355	3.964644050691	40
10	399	4.364644050691	40
10	443	4.764644050691	40
10	493	5.164644050691	40
10	572	5.564644050691	40
10	648	5.964644050691	40
10	724	6.364644050691	40
10	800	6.764644050691	40
10	882	7.164644050691	40
10	996	7.564644050691	40
10	1112	7.964644050691	40
10	1228	8.364644050691	40
10	1344	8.764644050691	40
10	1460	9.164644050691	40
10	1576	9.564644050691	40
10	1692	9.964644050691	40
10	1822	10.364644050691	40
10	1986	10.764644050691	40
10	2150	11.164644050691	40
10	2314	11.564644050691	40
10	2478	11.964644050691	40
10	2642	12.364644050691	40
10	2806	12.764644050691	40
10	2970	13.164644050691	40
10	3134	13.564644050691	40
10	3298	13.964644050691	40
10	3462	14.364644050691	40
10	3626	14.764644050691	40
10	3800	15.164644050691	40
10	4020	15.564644050691	40
10	4240	15.964644050691	40
10	4460	16.364644050691	40
10	4680	16.764644050691	40
10	4900	17.164644050691	40
10	5120	17.564644050691	40
10	5340	17.964644050691	40
10	5560	18.364644050691	40
10	5780	18.764644050691	40
10	6000	19.164644050691	40
10	6220	19.564644050691	40
10	6440	19.964644050691	40
10	6674	20.364644050691	40
10	6958	20.764644050691	40
10	7242	21.164644050691	40
10	7526	21.564644050691	40
10	7810	21.964644050691	40
10	8094	22.364644050691	40
10	8378	22.764644050691	40
10	8662	23.164644050691	40
10	8946	23.564644050691	40
10	9230	23.964644050691	40
10	9514	24.364644050691	40
10	9798	24.764644050691	40
10	10082	25.164644050691	40
10	10366	25.564644050691	40
10	10650	25.964644050691	40
10	10934	26.364644050691	40
10	11218	26.764644050691	40
10	11502	27.164644050691	40
10	11786	27.564644050691	40
10	12070	27.964644050691	40
10	12354	28.364644050691	40
10	12638	28.764644050691	40
10	12922	29.164644050691	40
10	13206	29.564644050691	40
10	13490	29.964644050691	40
10	13774	30.364644050691	40
10	14058	30.764644050691	40
10	14342	31.164644050691	40
3	2	0.1	0
3	2	0.1	0
3	12	0.364644050691	0
3	12	0.364644050691	2
3	13	0.364644050691	2
3	13	0.364644050691	0
3	16	0.364644050691	0
3	16	0.364644050691	0
3	19	0.364686050691	0
3	19	0.364686050691	0
3	30	0.614644050691	0
3	30	0.614644050691	2
3	31	0.614644050691	2
3	31	0.614644050691	0
3	34	0.614644050691	0
3	34	0.614644050691	0
3	37	0.614686050691	0
3	37	0.614686050691	0
3	47	0.864644050691	0
3	47	0.864644050691	2
3	48	0.864644050691	2
3	48	0.864644050691	0
3	51	0.864644050691	0
3	51	0.864644050691	0
3	54	0.864686050691	0
3	54	0.864686050691	0
3	65	1.114644050691	0
3	65	1.114644050691	2
3	66	1.114644050691	2
3	66	1.114644050691	0
3	69	1.114644050691	0
3	69	1.114644050691	0
3	72	1.114686050691	0
3	72	1.114686050691	0
3	82	1.364644050691	0
3	82	1.364644050691	2
3	83	1.364644050691	2
3	83	1.364644050691	0
3	86	1.364644050691	0
3	86	1.364644050691	0
3	89	1.364686050691	0
3	89	1.364686050691	0
3	100	1.614644050691	0
3	100	1.614644050691	2
3	101	1.614644050691	2
3	101	1.614644050691	0
3	104	1.614644050691	0
3	104	1.614644050691	0
3	107	1.614686050691	0
3	107	1.614686050691	0
3	117	1.864644050691	0
3	117	1.864644050691	2
3	118	1.864644050691	2
3	118	1.864644050691	0
3	121	1.864644050691	0
3	121	1.864644050691	0
3	124	1.864686050691	0
3	124	1.864686050691	0
3	137	2.114644050691	0
3	137	2.114644050691	2
3	138	2.114644050691	2
3	138	2.114644050691	0
3	141	2.114644050691	0
3	141	2.114644050691	0
3	145	2.114686050691	0
3	145	2.114686050691	0
3	168	2.327096453225	0
3	168	2.327096453225	0
3	171	2.327138453225	0
3	171	2.327138453225	0
3	176	2.364644050691	0
3	176	2.364644050691	2
3	177	2.364644050691	2
3	177	2.364644050691	0
3	180	2.364644050691	0
3	180	2.364644050691	0
3	184	2.364686050691	0
3	184	2.364686050691	0
3	212	2.727096460284	0
3	212	2.727096460284	0
3	215	2.727138460284	0
3	215	2.727138460284	0
3	220	2.764644050691	0
3	220	2.764644050691	2
3	221	2.764644050691	2
3	221	2.764644050691	0
3	224	2.764644050691	0
3	224	2.764644050691	0
3	228	2.764686050691	0
3	228	2.764686050691	0
3	256	3.127096467595	0
3	256	3.127096467595	0
3	259	3.127138467595	0
3	259	3.127138467595	0
3	264	3.164644050691	0
3	264	3.164644050691	2
3	265	3.164644050691	2
3	265	3.164644050691	0
3	268	3.164644050691	0
3	268	3.164644050691	0
3	272	3.164686050691	0
3	272	3.164686050691	0
3	300	3.527096475303	0
3	300	3.527096475303	0
3	303	3.527138475303	0
3	303	3.527138475303	0
3	308	3.564644050691	0
3	308	3.564644050691	2
3	309	3.564644050691	2
3	309	3.564644050691	0
3	312	3.564644050691	0
3	312	3.564644050691	0
3	316	3.564686050691	0
3	316	3.564686050691	0
3	344	3.92709648346	0
3	344	3.92709648346	0
3	347	3.92713848346	0
3	347	3.92713848346	0
3	352	3.964644050691	0
3	352	3.964644050691	2
3	353	3.964644050691	2
3	353	3.964644050691	0
3	356	3.964644050691	0
3	356	3.964644050691	0
3	360	3.964686050691	0
3	360	3.964686050691	0
3	388	4.327096491915	0
3	388	4.327096491915	0
3	391	4.327138491915	0
3	391	4.327138491915	0
3	396	4.364644050691	0
3	396	4.364644050691	2
3	397	4.364644050691	2
3	397	4.364644050691	0
3	400	4.364644050691	0
3	400	4.364644050691	0
3	404	4.364686050691	0
3	404	4.364686050691	0
3	432	4.727096500592	0
3	432	4.727096500592	0
3	435	4.727138500592	0
3	435	4.727138500592	0
3	440	4.764644050691	0
3	440	4.764644050691	2
3	441	4.764644050691	2
3	441	4.764644050691	0
3	444	4.764644050691	0
3	444	4.764644050691	0
3	448	4.764686050691	0
3	448	4.764686050691	0
3	479	5.12709650951	0
3	479	5.12709650951	0
3	485	5.12713850951	0
3	485	5.12713850951	0
3	490	5.164644050691	0
3	490	5.164644050691	2
3	491	5.164644050691	2
3	491	5.164644050691	0
3	494	5.164644050691	0
3	494	5.164644050691	0
3	499	5.164686050691	0
3	499	5.164686050691	0
3	523	5.370413488376	0
3	523	5.370413488376	0
3	529	5.370455488376	0
3	529	5.370455488376	0
3	558	5.527096518845	0
3	558	5.527096518845	0
3	564	5.527138518845	0
3	564	5.527138518845	0
3	569	5.564644050691	0
3	569	5.564644050691	2
3	570	5.564644050691	2
3	570	5.564644050691	0
3	573	5.564644050691	0
3	573	5.564644050691	0
3	578	5.564686050691	0
3	578	5.564686050691	0
3	595	5.620413501205	0
3	595	5.620413501205	0
3	601	5.620455501205	0
3	601	5.620455501205	0
3	634	5.927096527524	0
3	634	5.927096527524	0
3	640	5.927138527524	0
3	640	5.927138527524	0
3	645	5.964644050691	0
3	645	5.964644050691	2
3	646	5.964644050691	2
3	646	5.964644050691	0
3	649	5.964644050691	0
3	649	5.964644050691	0
3	654	5.964686050691	0
3	654	5.964686050691	0
3	671	6.020413517149	0
3	671	6.020413517149	0
3	677	6.020455517149	0
3	677	6.020455517149	0
3	710	6.327096535206	0
3	710	6.327096535206	0
3	716	6.327138535206	0
3	716	6.327138535206	0
3	721	6.364644050691	0
3	721	6.364644050691	2
3	722	6.364644050691	2
3	722	6.364644050691	0
3	725	6.364644050691	0
3	725	6.364644050691	0
3	730	6.364686050691	0
3	730	6.364686050691	0
3	747	6.420413531706	0
3	747	6.420413531706	0
3	753	6.420455531706	0
3	753	6.420455531706	0
3	786	6.727096541795	0
3	786	6.727096541795	0
3	792	6.727138541795	0
3	792	6.727138541795	0
3	797	6.764644050691	0
3	797	6.764644050691	2
3	798	6.764644050691	2
3	798	6.764644050691	0
3	801	6.764644050691	0
3	801	6.764644050691	0
3	806	6.764686050691	0
3	806	6.764686050691	0
3	823	6.820413544875	0
3	823	6.820413544875	0
3	829	6.820455544875	0
3	829	6.820455544875	0
3	865	7.127096547411	0
3	865	7.127096547411	0
3	874	7.127138547411	0
3	874	7.127138547411	0
3	879	7.164644050691	0
3	879	7.164644050691	2
3	880	7.164644050691	2
3	880	7.164644050691	0
3	883	7.164644050691	0
3	883	7.164644050691	0
3	889	7.164686050691	0
3	889	7.164686050691	0
3	910	7.220413556657	0
3	910	7.220413556657	0
3	919	7.220455556657	0
3	919	7.220455556657	0
3	951	7.4935857117	0
3	951	7.4935857117	0
3	960	7.4936277117	0
3	960	7.4936277117	0
3	979	7.527096551944	0
3	979	7.527096551944	0
3	988	7.527138551944	0
3	988	7.527138551944	0
3	993	7.564644050691	0
3	993	7.564644050691	2
3	994	7.564644050691	2
3	994	7.564644050691	0
3	997	7.564644050691	0
3	997	7.564644050691	0
3	1003	7.564686050691	0
3	1003	7.564686050691	0
3	1024	7.620413567051	0
3	1024	7.620413567051	0
3	1033	7.620455567051	0
3	1033	7.620455567051	0
3	1067	7.893585728513	0
3	1067	7.893585728513	0
3	1076	7.893627728513	0
3	1076	7.893627728513	0
3	1095	7.927096555476	0
3	1095	7.927096555476	0
3	1104	7.927138555476	0
3	1104	7.927138555476	0
3	1109	7.964644050691	0
3	1109	7.964644050691	2
3	1110	7.964644050691	2
3	1110	7.964644050691	0
3	1113	7.964644050691	0
3	1113	7.964644050691	0
3	1119	7.964686050691	0
3	1119	7.964686050691	0
3	1140	8.020413576057	0
3	1140	8.020413576057	0
3	1149	8.020455576057	0
3	1149	8.020455576057	0
3	1183	8.293585744258	0
3	1183	8.293585744258	0
3	1192	8.293627744258	0
3	1192	8.293627744258	0
3	1210	8.327096557988	0
3	1210	8.327096557988	0
3	1217	8.327138557988	0
3	1217	8.327138557988	0
3	1225	8.364644050691	0
3	1225	8.364644050691	2
3	1226	8.364644050691	2
3	1226	8.364644050691	0
3	1229	8.364644050691	0
3	1229	8.364644050691	0
3	1235	8.364686050691	0
3	1235	8.364686050691	0
3	1256	8.420413583675	0
3	1256	8.420413583675	0
3	1265	8.420455583675	0
3	1265	8.420455583675	0
3	1299	8.693585758992	0
3	1299	8.693585758992	0
3	1308	8.693627758992	0
3	1308	8.693627758992	0
3	1326	8.727096559376	0
3	1326	8.727096559376	0
3	1333	8.727138559376	0
3	1333	8.727138559376	0
3	1341	8.764644050691	0
3	1341	8.764644050691	2
3	1342	8.764644050691	2
3	1342	8.764644050691	0
3	1345	8.764644050691	0
3	1345	8.764644050691	0
3	1351	8.764686050691	0
3	1351	8.764686050691	0
3	1372	8.820413589906	0
3	1372	8.820413589906	0
3	1381	8.820455589906	0
3	1381	8.820455589906	0
3	1415	9.093585772991	0
3	1415	9.093585772991	0
3	1424	9.093627772991	0
3	1424	9.093627772991	0
3	1442	9.127096560872	0
3	1442	9.127096560872	0
3	1449	9.127138560872	0
3	1449	9.127138560872	0
3	1457	9.164644050691	0
3	1457	9.164644050691	2
3	1458	9.164644050691	2
3	1458	9.164644050691	0
3	1461	9.164644050691	0
3	1461	9.164644050691	0
3	1467	9.164686050691	0
3	1467	9.164686050691	0
3	1488	9.220413596561	0
3	1488	9.220413596561	0
3	1497	9.220455596561	0
3	1497	9.220455596561	0
3	1531	9.493585787696	0
3	1531	9.493585787696	0
3	1540	9.493627787696	0
3	1540	9.493627787696	0
3	1558	9.527096562447	0
3	1558	9.527096562447	0
3	1565	9.527138562447	0
3	1565	9.527138562447	0
3	1573	9.564644050691	0
3	1573	9.564644050691	2
3	1574	9.564644050691	2
3	1574	9.564644050691	0
3	1577	9.564644050691	0
3	1577	9.564644050691	0
3	1583	9.564686050691	0
3	1583	9.564686050691	0
3	1604	9.620413599409	0
3	1604	9.620413599409	0
3	1613	9.620455599409	0
3	1613	9.620455599409	0
3	1647	9.893585794666	0
3	1647	9.893585794666	0
3	1656	9.893627794666	0
3	1656	9.893627794666	0
3	1674	9.927096556173	0
3	1674	9.927096556173	0
3	1681	9.927138556173	0
3	1681	9.927138556173	0
3	1689	9.964644050691	0
3	1689	9.964644050691	2
3	1690	9.964644050691	2
3	1690	9.964644050691	0
3	1693	9.964644050691	0
3	1693	9.964644050691	0
3	1699	9.964686050691	0
3	1699	9.964686050691	0
3	1720	10.020413591748	0
3	1720	10.020413591748	0
3	1729	10.020455591748	0
3	1729	10.020455591748	0
3	1770	10.293585791468	0
3	1770	10.293585791468	0
3	1782	10.293627791468	0
3	1782	10.293627791468	0
3	1799	10.327096547018	0
3	1799	10.327096547018	0
3	1805	10.327138547018	0
3	1805	10.327138547018	0
3	1819	10.364644050691	0
3	1819	10.364644050691	2
3	1820	10.364644050691	2
3	1820	10.364644050691	0
3	1823	10.364644050691	0
3	1823	10.364644050691	0
3	1830	10.364686050691	0
3	1830	10.364686050691	0
3	1854	10.383629039618	0
3	1854	10.383629039618	0
3	1866	10.383671039618	0
3	1866	10.383671039618	0
3	1881	10.420413578784	0
3	1881	10.420413578784	0
3	1893	10.420455578784	0
3	1893	10.420455578784	0
3	1934	10.693585786139	0
3	1934	10.693585786139	0
3	1946	10.693627786139	0
3	1946	10.693627786139	0
3	1963	10.727096541765	0
3	1963	10.727096541765	0
3	1969	10.727138541765	0
3	1969	10.727138541765	0
3	1983	10.764644050691	0
3	1983	10.764644050691	2
3	1984	10.764644050691	2
3	1984	10.764644050691	0
3	1987	10.764644050691	0
3	1987	10.764644050691	0
3	1994	10.764686050691	0
3	1994	10.764686050691	0
3	2018	10.783629041449	0
3	2018	10.783629041449	0
3	2030	10.783671041449	0
3	2030	10.783671041449	0
3	2045	10.820413566779	0
3	2045	10.820413566779	0
3	2057	10.820455566779	0
3	2057	10.820455566779	0
3	2098	11.093585781178	0
3	2098	11.093585781178	0
3	2110	11.093627781178	0
3	2110	11.093627781178	0
3	2127	11.127096543043	0
3	2127	11.127096543043	0
3	2133	11.127138543043	0
3	2133	11.127138543043	0
3	2147	11.164644050691	0
3	2147	11.164644050691	2
3	2148	11.164644050691	2
3	2148	11.164644050691	0
3	2151	11.164644050691	0
3	2151	11.164644050691	0
3	2158	11.164686050691	0
3	2158	11.164686050691	0
3	2182	11.183629043266	0
3	2182	11.183629043266	0
3	2194	11.183671043266	0
3	2194	11.183671043266	0
3	2209	11.220413557682	0
3	2209	11.220413557682	0
3	2221	11.220455557682	0
3	2221	11.220455557682	0
3	2262	11.493585776633	0
3	2262	11.493585776633	0
3	2274	11.493627776633	0
3	2274	11.493627776633	0
3	2292	11.527096550607	0
3	2292	11.527096550607	0
3	2300	11.527138550607	0
3	2300	11.527138550607	0
3	2311	11.564644050691	0
3	2311	11.564644050691	2
3	2312	11.564644050691	2
3	2312	11.564644050691	0
3	2315	11.564644050691	0
3	2315	11.564644050691	0
3	2322	11.564686050691	0
3	2322	11.564686050691	0
3	2346	11.583629045214	0
3	2346	11.583629045214	0
3	2358	11.583671045214	0
3	2358	11.583671045214	0
3	2373	11.620413551925	0
3	2373	11.620413551925	0
3	2385	11.620455551925	0
3	2385	11.620455551925	0
3	2426	11.893585772839	0
3	2426	11.893585772839	0
3	2438	11.893627772839	0
3	2438	11.893627772839	0
3	2456	11.927096560037	0
3	2456	11.927096560037	0
3	2464	11.927138560037	0
3	2464	11.927138560037	0
3	2475	11.964644050691	0
3	2475	11.964644050691	2
3	2476	11.964644050691	2
3	2476	11.964644050691	0
3	2479	11.964644050691	0
3	2479	11.964644050691	0
3	2486	11.964686050691	0
3	2486	11.964686050691	0
3	2510	11.983629047171	0
3	2510	11.983629047171	0
3	2522	11.983671047171	0
3	2522	11.983671047171	0
3	2537	12.020413549829	0
3	2537	12.020413549829	0
3	2549	12.020455549829	0
3	2549	12.020455549829	0
3	2590	12.293585769949	0
3	2590	12.293585769949	0
3	2602	12.293627769949	0
3	2602	12.293627769949	0
3	2620	12.327096562877	0
3	2620	12.327096562877	0
3	2628	12.327138562877	0
3	2628	12.327138562877	0
3	2639	12.364644050691	0
3	2639	12.364644050691	2
3	2640	12.364644050691	2
3	2640	12.364644050691	0
3	2643	12.364644050691	0
3	2643	12.364644050691	0
3	2650	12.364686050691	0
3	2650	12.364686050691	0
3	2674	12.383629049336	0
3	2674	12.383629049336	0
3	2686	12.383671049336	0
3	2686	12.383671049336	0
3	2700	12.42041355152	0
3	2700	12.42041355152	0
3	2710	12.42045555152	0
3	2710	12.42045555152	0
3	2754	12.69358576815	0
3	2754	12.69358576815	0
3	2766	12.69362776815	0
3	2766	12.69362776815	0
3	2784	12.727096560692	0
3	2784	12.727096560692	0
3	2792	12.727138560692	0
3	2792	12.727138560692	0
3	2803	12.764644050691	0
3	2803	12.764644050691	2
3	2804	12.764644050691	2
3	2804	12.764644050691	0
3	2807	12.764644050691	0
3	2807	12.764644050691	0
3	2814	12.764686050691	0
3	2814	12.764686050691	0
3	2838	12.783629051676	0
3	2838	12.783629051676	0
3	2850	12.783671051676	0
3	2850	12.783671051676	0
3	2864	12.820413556895	0
3	2864	12.820413556895	0
3	2874	12.820455556895	0
3	2874	12.820455556895	0
3	2918	13.093585767651	0
3	2918	13.093585767651	0
3	2930	13.093627767651	0
3	2930	13.093627767651	0
3	2948	13.127096560656	0
3	2948	13.127096560656	0
3	2956	13.127138560656	0
3	2956	13.127138560656	0
3	2967	13.164644050691	0
3	2967	13.164644050691	2
3	2968	13.164644050691	2
3	2968	13.164644050691	0
3	2971	13.164644050691	0
3	2971	13.164644050691	0
3	2978	13.164686050691	0
3	2978	13.164686050691	0
3	3002	13.183629054207	0
3	3002	13.183629054207	0
3	3014	13.183671054207	0
3	3014	13.183671054207	0
3	3028	13.220413565653	0
3	3028	13.220413565653	0
3	3038	13.220455565653	0
3	3038	13.220455565653	0
3	3082	13.49358576861	0
3	3082	13.49358576861	0
3	3094	13.49362776861	0
3	3094	13.49362776861	0
3	3112	13.527096560743	0
3	3112	13.527096560743	0
3	3120	13.527138560743	0
3	3120	13.527138560743	0
3	3131	13.564644050691	0
3	3131	13.564644050691	2
3	3132	13.564644050691	2
3	3132	13.564644050691	0
3	3135	13.564644050691	0
3	3135	13.564644050691	0
3	3142	13.564686050691	0
3	3142	13.564686050691	0
3	3166	13.583629057104	0
3	3166	13.583629057104	0
3	3178	13.583671057104	0
3	3178	13.583671057104	0
3	3192	13.620413577367	0
3	3192	13.620413577367	0
3	3202	13.620455577367	0
3	3202	13.620455577367	0
3	3246	13.893585771202	0
3	3246	13.893585771202	0
3	3258	13.893627771202	0
3	3258	13.893627771202	0
3	3276	13.927096560842	0
3	3276	13.927096560842	0
3	3284	13.927138560842	0
3	3284	13.927138560842	0
3	3295	13.964644050691	0
3	3295	13.964644050691	2
3	3296	13.964644050691	2
3	3296	13.964644050691	0
3	3299	13.964644050691	0
3	3299	13.964644050691	0
3	3306	13.964686050691	0
3	3306	13.964686050691	0
3	3330	13.983629060358	0
3	3330	13.983629060358	0
3	3342	13.983671060358	0
3	3342	13.983671060358	0
3	3356	14.020413591134	0
3	3356	14.020413591134	0
3	3366	14.020455591134	0
3	3366	14.020455591134	0
3	3410	14.293585775613	0
3	3410	14.293585775613	0
3	3422	14.293627775613	0
3	3422	14.293627775613	0
3	3440	14.327096560912	0
3	3440	14.327096560912	0
3	3448	14.327138560912	0
3	3448	14.327138560912	0
3	3459	14.364644050691	0
3	3459	14.364644050691	2
3	3460	14.364644050691	2
3	3460	14.364644050691	0
3	3463	14.364644050691	0
3	3463	14.364644050691	0
3	3470	14.364686050691	0
3	3470	14.364686050691	0
3	3494	14.383629064075	0
3	3494	14.383629064075	0
3	3506	14.383671064075	0
3	3506	14.383671064075	0
3	3520	14.420413601476	0
3	3520	14.420413601476	0
3	3530	14.420455601476	0
3	3530	14.420455601476	0
3	3574	14.693585782295	0
3	3574	14.693585782295	0
3	3586	14.693627782295	0
3	3586	14.693627782295	0
3	3604	14.727096560949	0
3	3604	14.727096560949	0
3	3612	14.727138560949	0
3	3612	14.727138560949	0
3	3623	14.764644050691	0
3	3623	14.764644050691	2
3	3624	14.764644050691	2
3	3624	14.764644050691	0
3	3627	14.764644050691	0
3	3627	14.764644050691	0
3	3634	14.764686050691	0
3	3634	14.764686050691	0
3	3658	14.783629068356	0
3	3658	14.783629068356	0
3	3670	14.783671068356	0
3	3670	14.783671068356	0
3	3684	14.820413603079	0
3	3684	14.820413603079	0
3	3694	14.820455603079	0
3	3694	14.820455603079	0
3	3738	15.093585791205	0
3	3738	15.093585791205	0
3	3750	15.093627791205	0
3	3750	15.093627791205	0
3	3770	15.127096561025	0
3	3770	15.127096561025	0
3	3779	15.127138561025	0
3	3779	15.127138561025	0
3	3797	15.164644050691	0
3	3797	15.164644050691	2
3	3798	15.164644050691	2
3	3798	15.164644050691	0
3	3801	15.164644050691	0
3	3801	15.164644050691	0
3	3809	15.164686050691	0
3	3809	15.164686050691	0
3	3837	15.183629073238	0
3	3837	15.183629073238	0
3	3852	15.183671073238	0
3	3852	15.183671073238	0
3	3866	15.220413600954	0
3	3866	15.220413600954	0
3	3877	15.220455600954	0
3	3877	15.220455600954	0
3	3897	15.229130802966	0
3	3897	15.229130802966	0
3	3912	15.229172802966	0
3	3912	15.229172802966	0
3	3956	15.493585802149	0
3	3956	15.493585802149	0
3	3971	15.493627802149	0
3	3971	15.493627802149	0
3	3989	15.527096561106	0
3	3989	15.527096561106	0
3	3998	15.527138561106	0
3	3998	15.527138561106	0
3	4017	15.564644050691	0
3	4017	15.564644050691	2
3	4018	15.564644050691	2
3	4018	15.564644050691	0
3	4021	15.564644050691	0
3	4021	15.564644050691	0
3	4029	15.564686050691	0
3	4029	15.564686050691	0
3	4057	15.583629078835	0
3	4057	15.583629078835	0
3	4072	15.583671078835	0
3	4072	15.583671078835	0
3	4087	15.620413600954	0
3	4087	15.620413600954	0
3	4100	15.620455600954	0
3	4100	15.620455600954	0
3	4117	15.629130814448	0
3	4117	15.629130814448	0
3	4132	15.629172814448	0
3	4132	15.629172814448	0
3	4176	15.893585814911	0
3	4176	15.893585814911	0
3	4191	15.893627814911	0
3	4191	15.893627814911	0
3	4209	15.927096561198	0
3	4209	15.927096561198	0
3	4218	15.927138561198	0
3	4218	15.927138561198	0
3	4237	15.964644050691	0
3	4237	15.964644050691	2
3	4238	15.964644050691	2
3	4238	15.964644050691	0
3	4241	15.964644050691	0
3	4241	15.964644050691	0
3	4249	15.964686050691	0
3	4249	15.964686050691	0
3	4277	15.983629085258	0
3	4277	15.983629085258	0
3	4292	15.983671085258	0
3	4292	15.983671085258	0
3	4307	16.020413600954	0
3	4307	16.020413600954	0
3	4320	16.020455600954	0
3	4320	16.020455600954	0
3	4337	16.029130825548	0
3	4337	16.029130825548	0
3	4352	16.029172825548	0
3	4352	16.029172825548	0
3	4396	16.293585829274	0
3	4396	16.293585829274	0
3	4411	16.293627829274	0
3	4411	16.293627829274	0
3	4429	16.327096561287	0
3	4429	16.327096561287	0
3	4438	16.327138561287	0
3	4438	16.327138561287	0
3	4457	16.364644050691	0
3	4457	16.364644050691	2
3	4458	16.364644050691	2
3	4458	16.364644050691	0
3	4461	16.364644050691	0
3	4461	16.364644050691	0
3	4469	16.364686050691	0
3	4469	16.364686050691	0
3	4497	16.383629092619	0
3	4497	16.383629092619	0
3	4512	16.383671092619	0
3	4512	16.383671092619	0
3	4527	16.420413601352	0
3	4527	16.420413601352	0
3	4540	16.420455601352	0
3	4540	16.420455601352	0
3	4557	16.42913083644	0
3	4557	16.42913083644	0
3	4572	16.42917283644	0
3	4572	16.42917283644	0
3	4616	16.693585846553	0
3	4616	16.693585846553	0
3	4631	16.693627846553	0
3	4631	16.693627846553	0
3	4649	16.727096563683	0
3	4649	16.727096563683	0
3	4658	16.727138563683	0
3	4658	16.727138563683	0
3	4677	16.764644050691	0
3	4677	16.764644050691	2
3	4678	16.764644050691	2
3	4678	16.764644050691	0
3	4681	16.764644050691	0
3	4681	16.764644050691	0
3	4689	16.764686050691	0
3	4689	16.764686050691	0
3	4717	16.783629101383	0
3	4717	16.783629101383	0
3	4732	16.783671101383	0
3	4732	16.783671101383	0
3	4747	16.820413603313	0
3	4747	16.820413603313	0
3	4760	16.820455603313	0
3	4760	16.820455603313	0
3	4777	16.829130844718	0
3	4777	16.829130844718	0
3	4792	16.829172844718	0
3	4792	16.829172844718	0
3	4836	17.093585857136	0
3	4836	17.093585857136	0
3	4851	17.093627857136	0
3	4851	17.093627857136	0
3	4869	17.127096561639	0
3	4869	17.127096561639	0
3	4878	17.127138561639	0
3	4878	17.127138561639	0
3	4897	17.164644050691	0
3	4897	17.164644050691	2
3	4898	17.164644050691	2
3	4898	17.164644050691	0
3	4901	17.164644050691	0
3	4901	17.164644050691	0
3	4909	17.164686050691	0
3	4909	17.164686050691	0
3	4937	17.183629102592	0
3	4937	17.183629102592	0
3	4952	17.183671102592	0
3	4952	17.183671102592	0
3	4967	17.220413598605	0
3	4967	17.220413598605	0
3	4980	17.220455598605	0
3	4980	17.220455598605	0
3	4997	17.229130840784	0
3	4997	17.229130840784	0
3	5012	17.229172840784	0
3	5012	17.229172840784	0
3	5056	17.493585849553	0
3	5056	17.493585849553	0
3	5071	17.493627849553	0
3	5071	17.493627849553	0
3	5089	17.527096553142	0
3	5089	17.527096553142	0
3	5098	17.527138553142	0
3	5098	17.527138553142	0
3	5117	17.564644050691	0
3	5117	17.564644050691	2
3	5118	17.564644050691	2
3	5118	17.564644050691	0
3	5121	17.564644050691	0
3	5121	17.564644050691	0
3	5129	17.564686050691	0
3	5129	17.564686050691	0
3	5157	17.583629095184	0
3	5157	17.583629095184	0
3	5172	17.583671095184	0
3	5172	17.583671095184	0
3	5187	17.620413585547	0
3	5187	17.620413585547	0
3	5200	17.620455585547	0
3	5200	17.620455585547	0
3	5217	17.629130826675	0
3	5217	17.629130826675	0
3	5232	17.629172826675	0
3	5232	17.629172826675	0
3	5276	17.893585832405	0
3	5276	17.893585832405	0
3	5291	17.893627832405	0
3	5291	17.893627832405	0
3	5308	17.927096544811	0
3	5308	17.927096544811	0
3	5315	17.927138544811	0
3	5315	17.927138544811	0
3	5337	17.964644050691	0
3	5337	17.964644050691	2
3	5338	17.964644050691	2
3	5338	17.964644050691	0
3	5341	17.964644050691	0
3	5341	17.964644050691	0
3	5349	17.964686050691	0
3	5349	17.964686050691	0
3	5377	17.983629087727	0
3	5377	17.983629087727	0
3	5392	17.983671087727	0
3	5392	17.983671087727	0
3	5406	18.020413572296	0
3	5406	18.020413572296	0
3	5417	18.020455572296	0
3	5417	18.020455572296	0
3	5437	18.029130812496	0
3	5437	18.029130812496	0
3	5452	18.029172812496	0
3	5452	18.029172812496	0
3	5496	18.293585817867	0
3	5496	18.293585817867	0
3	5511	18.293627817867	0
3	5511	18.293627817867	0
3	5528	18.327096542622	0
3	5528	18.327096542622	0
3	5535	18.327138542622	0
3	5535	18.327138542622	0
3	5557	18.364644050691	0
3	5557	18.364644050691	2
3	5558	18.364644050691	2
3	5558	18.364644050691	0
3	5561	18.364644050691	0
3	5561	18.364644050691	0
3	5569	18.364686050691	0
3	5569	18.364686050691	0
3	5597	18.383629083869	0
3	5597	18.383629083869	0
3	5612	18.383671083869	0
3	5612	18.383671083869	0
3	5626	18.420413561724	0
3	5626	18.420413561724	0
3	5637	18.420455561724	0
3	5637	18.420455561724	0
3	5657	18.429130798935	0
3	5657	18.429130798935	0
3	5672	18.429172798935	0
3	5672	18.429172798935	0
3	5716	18.693585804891	0
3	5716	18.693585804891	0
3	5731	18.693627804891	0
3	5731	18.693627804891	0
3	5748	18.727096546892	0
3	5748	18.727096546892	0
3	5755	18.727138546892	0
3	5755	18.727138546892	0
3	5777	18.764644050691	0
3	5777	18.764644050691	2
3	5778	18.764644050691	2
3	5778	18.764644050691	0
3	5781	18.764644050691	0
3	5781	18.764644050691	0
3	5789	18.764686050691	0
3	5789	18.764686050691	0
3	5817	18.783629083721	0
3	5817	18.783629083721	0
3	5832	18.783671083721	0
3	5832	18.783671083721	0
3	5846	18.82041355429	0
3	5846	18.82041355429	0
3	5857	18.82045555429	0
3	5857	18.82045555429	0
3	5876	18.829130786226	0
3	5876	18.829130786226	0
3	5889	18.829172786226	0
3	5889	18.829172786226	0
3	5936	19.09358579369	0
3	5936	19.09358579369	0
3	5951	19.09362779369	0
3	5951	19.09362779369	0
3	5969	19.127096555996	0
3	5969	19.127096555996	0
3	5978	19.127138555996	0
3	5978	19.127138555996	0
3	5997	19.164644050691	0
3	5997	19.164644050691	2
3	5998	19.164644050691	2
3	5998	19.164644050691	0
3	6001	19.164644050691	0
3	6001	19.164644050691	0
3	6009	19.164686050691	0
3	6009	19.164686050691	0
3	6037	19.183629087287	0
3	6037	19.183629087287	0
3	6052	19.183671087287	0
3	6052	19.183671087287	0
3	6066	19.22041355038	0
3	6066	19.22041355038	0
3	6077	19.22045555038	0
3	6077	19.22045555038	0
3	6096	19.229130774745	0
3	6096	19.229130774745	0
3	6109	19.229172774745	0
3	6109	19.229172774745	0
3	6156	19.493585784535	0
3	6156	19.493585784535	0
3	6171	19.493627784535	0
3	6171	19.493627784535	0
3	6189	19.527096563648	0
3	6189	19.527096563648	0
3	6198	19.527138563648	0
3	6198	19.527138563648	0
3	6217	19.564644050691	0
3	6217	19.564644050691	2
3	6218	19.564644050691	2
3	6218	19.564644050691	0
3	6221	19.564644050691	0
3	6221	19.564644050691	0
3	6229	19.564686050691	0
3	6229	19.564686050691	0
3	6257	19.583629094448	0
3	6257	19.583629094448	0
3	6272	19.583671094448	0
3	6272	19.583671094448	0
3	6286	19.620413550224	0
3	6286	19.620413550224	0
3	6297	19.620455550224	0
3	6297	19.620455550224	0
3	6316	19.62913076484	0
3	6316	19.62913076484	0
3	6329	19.62917276484	0
3	6329	19.62917276484	0
3	6375	19.893585777582	0
3	6375	19.893585777582	0
3	6388	19.893627777582	0
3	6388	19.893627777582	0
3	6409	19.927096563833	0
3	6409	19.927096563833	0
3	6418	19.927138563833	0
3	6418	19.927138563833	0
3	6437	19.964644050691	0
3	6437	19.964644050691	2
3	6438	19.964644050691	2
3	6438	19.964644050691	0
3	6441	19.964644050691	0
3	6441	19.964644050691	0
3	6449	19.964686050691	0
3	6449	19.964686050691	0
3	6477	19.983629102589	0
3	6477	19.983629102589	0
3	6492	19.983671102589	0
3	6492	19.983671102589	0
3	6506	20.02041355383	0
3	6506	20.02041355383	0
3	6517	20.02045555383	0
3	6517	20.02045555383	0
3	6536	20.029130756878	0
3	6536	20.029130756878	0
3	6549	20.029172756878	0
3	6549	20.029172756878	0
3	6601	20.293585772962	0
3	6601	20.293585772962	0
3	6615	20.293627772962	0
3	6615	20.293627772962	0
3	6639	20.327096562164	0
3	6639	20.327096562164	0
3	6649	20.327138562164	0
3	6649	20.327138562164	0
3	6671	20.364644050691	0
3	6671	20.364644050691	2
3	6672	20.364644050691	2
3	6672	20.364644050691	0
3	6675	20.364644050691	0
3	6675	20.364644050691	0
3	6684	20.364686050691	0
3	6684	20.364686050691	0
3	6714	20.377612974242	0
3	6714	20.377612974242	0
3	6728	20.377654974242	0
3	6728	20.377654974242	0
3	6749	20.383629102229	0
3	6749	20.383629102229	0
3	6767	20.383671102229	0
3	6767	20.383671102229	0
3	6782	20.420413560987	0
3	6782	20.420413560987	0
3	6794	20.420455560987	0
3	6794	20.420455560987	0
3	6817	20.42913075122	0
3	6817	20.42913075122	0
3	6833	20.42917275122	0
3	6833	20.42917275122	0
3	6885	20.693585770834	0
3	6885	20.693585770834	0
3	6899	20.693627770834	0
3	6899	20.693627770834	0
3	6923	20.72709656227	0
3	6923	20.72709656227	0
3	6933	20.72713856227	0
3	6933	20.72713856227	0
3	6955	20.764644050691	0
3	6955	20.764644050691	2
3	6956	20.764644050691	2
3	6956	20.764644050691	0
3	6959	20.764644050691	0
3	6959	20.764644050691	0
3	6968	20.764686050691	0
3	6968	20.764686050691	0
3	6998	20.77761296709	0
3	6998	20.77761296709	0
3	7012	20.77765496709	0
3	7012	20.77765496709	0
3	7033	20.783629094535	0
3	7033	20.783629094535	0
3	7051	20.783671094535	0
3	7051	20.783671094535	0
3	7066	20.820413571318	0
3	7066	20.820413571318	0
3	7078	20.820455571318	0
3	7078	20.820455571318	0
3	7100	20.829130748272	0
3	7100	20.829130748272	0
3	7114	20.829172748272	0
3	7114	20.829172748272	0
3	7169	21.093585771264	0
3	7169	21.093585771264	0
3	7183	21.093627771264	0
3	7183	21.093627771264	0
3	7207	21.127096562349	0
3	7207	21.127096562349	0
3	7217	21.127138562349	0
3	7217	21.127138562349	0
3	7239	21.164644050691	0
3	7239	21.164644050691	2
3	7240	21.164644050691	2
3	7240	21.164644050691	0
3	7243	21.164644050691	0
3	7243	21.164644050691	0
3	7252	21.164686050691	0
3	7252	21.164686050691	0
3	7282	21.177612960515	0
3	7282	21.177612960515	0
3	7296	21.177654960515	0
3	7296	21.177654960515	0
3	7317	21.183629088568	0
3	7317	21.183629088568	0
3	7335	21.183671088568	0
3	7335	21.183671088568	0
3	7350	21.220413584366	0
3	7350	21.220413584366	0
3	7362	21.220455584366	0
3	7362	21.220455584366	0
3	7384	21.229130748412	0
3	7384	21.229130748412	0
3	7398	21.229172748412	0
3	7398	21.229172748412	0
3	7453	21.493585774211	0
3	7453	21.493585774211	0
3	7467	21.493627774211	0
3	7467	21.493627774211	0
3	7491	21.527096562428	0
3	7491	21.527096562428	0
3	7501	21.527138562428	0
3	7501	21.527138562428	0
3	7523	21.564644050691	0
3	7523	21.564644050691	2
3	7524	21.564644050691	2
3	7524	21.564644050691	0
3	7527	21.564644050691	0
3	7527	21.564644050691	0
3	7536	21.564686050691	0
3	7536	21.564686050691	0
3	7565	21.577612954735	0
3	7565	21.577612954735	0
3	7577	21.577654954735	0
3	7577	21.577654954735	0
3	7601	21.583629084392	0
3	7601	21.583629084392	0
3	7619	21.583671084392	0
3	7619	21.583671084392	0
3	7634	21.620413597521	0
3	7634	21.620413597521	0
3	7646	21.620455597521	0
3	7646	21.620455597521	0
3	7668	21.629130751927	0
3	7668	21.629130751927	0
3	7682	21.629172751927	0
3	7682	21.629172751927	0
3	7737	21.893585779604	0
3	7737	21.893585779604	0
3	7751	21.893627779604	0
3	7751	21.893627779604	0
3	7775	21.927096562481	0
3	7775	21.927096562481	0
3	7785	21.927138562481	0
3	7785	21.927138562481	0
3	7807	21.964644050691	0
3	7807	21.964644050691	2
3	7808	21.964644050691	2
3	7808	21.964644050691	0
3	7811	21.964644050691	0
3	7811	21.964644050691	0
3	7820	21.964686050691	0
3	7820	21.964686050691	0
3	7849	21.977612949999	0
3	7849	21.977612949999	0
3	7861	21.977654949999	0
3	7861	21.977654949999	0
3	7885	21.983629082023	0
3	7885	21.983629082023	0
3	7903	21.983671082023	0
3	7903	21.983671082023	0
3	7918	22.020413603343	0
3	7918	22.020413603343	0
3	7930	22.020455603343	0
3	7930	22.020455603343	0
3	7953	22.029130759028	0
3	7953	22.029130759028	0
3	7969	22.029172759028	0
3	7969	22.029172759028	0
3	8021	22.29358578732	0
3	8021	22.29358578732	0
3	8035	22.29362778732	0
3	8035	22.29362778732	0
3	8059	22.327096562576	0
3	8059	22.327096562576	0
3	8069	22.327138562576	0
3	8069	22.327138562576	0
3	8091	22.364644050691	0
3	8091	22.364644050691	2
3	8092	22.364644050691	2
3	8092	22.364644050691	0
3	8095	22.364644050691	0
3	8095	22.364644050691	0
3	8104	22.364686050691	0
3	8104	22.364686050691	0
3	8133	22.377612946608	0
3	8133	22.377612946608	0
3	8145	22.377654946608	0
3	8145	22.377654946608	0
3	8169	22.383629081526	0
3	8169	22.383629081526	0
3	8187	22.383671081526	0
3	8187	22.383671081526	0
3	8202	22.42041360159	0
3	8202	22.42041360159	0
3	8214	22.42045560159	0
3	8214	22.42045560159	0
3	8238	22.4291307696	0
3	8238	22.4291307696	0
3	8256	22.4291727696	0
3	8256	22.4291727696	0
3	8306	22.693585797161	0
3	8306	22.693585797161	0
3	8322	22.693627797161	0
3	8322	22.693627797161	0
3	8343	22.727096562696	0
3	8343	22.727096562696	0
3	8353	22.727138562696	0
3	8353	22.727138562696	0
3	8375	22.764644050691	0
3	8375	22.764644050691	2
3	8376	22.764644050691	2
3	8376	22.764644050691	0
3	8379	22.764644050691	0
3	8379	22.764644050691	0
3	8388	22.764686050691	0
3	8388	22.764686050691	0
3	8417	22.77761294478	0
3	8417	22.77761294478	0
3	8429	22.77765494478	0
3	8429	22.77765494478	0
3	8453	22.783629082877	0
3	8453	22.783629082877	0
3	8471	22.783671082877	0
3	8471	22.783671082877	0
3	8486	22.820413600954	0
3	8486	22.820413600954	0
3	8498	22.820455600954	0
3	8498	22.820455600954	0
3	8522	22.829130783304	0
3	8522	22.829130783304	0
3	8540	22.829172783304	0
3	8540	22.829172783304	0
3	8590	23.093585808923	0
3	8590	23.093585808923	0
3	8606	23.093627808923	0
3	8606	23.093627808923	0
3	8627	23.127096562781	0
3	8627	23.127096562781	0
3	8637	23.127138562781	0
3	8637	23.127138562781	0
3	8659	23.164644050691	0
3	8659	23.164644050691	2
3	8660	23.164644050691	2
3	8660	23.164644050691	0
3	8663	23.164644050691	0
3	8663	23.164644050691	0
3	8672	23.164686050691	0
3	8672	23.164686050691	0
3	8701	23.17761294475	0
3	8701	23.17761294475	0
3	8713	23.17765494475	0
3	8713	23.17765494475	0
3	8737	23.183629086098	0
3	8737	23.183629086098	0
3	8755	23.183671086098	0
3	8755	23.183671086098	0
3	8771	23.220413600954	0
3	8771	23.220413600954	0
3	8785	23.220455600954	0
3	8785	23.220455600954	0
3	8806	23.22913079984	0
3	8806	23.22913079984	0
3	8824	23.22917279984	0
3	8824	23.22917279984	0
3	8874	23.49358582241	0
3	8874	23.49358582241	0
3	8890	23.49362782241	0
3	8890	23.49362782241	0
3	8911	23.52709656287	0
3	8911	23.52709656287	0
3	8921	23.52713856287	0
3	8921	23.52713856287	0
3	8943	23.564644050691	0
3	8943	23.564644050691	2
3	8944	23.564644050691	2
3	8944	23.564644050691	0
3	8947	23.564644050691	0
3	8947	23.564644050691	0
3	8956	23.564686050691	0
3	8956	23.564686050691	0
3	8985	23.577612946732	0
3	8985	23.577612946732	0
3	8997	23.577654946732	0
3	8997	23.577654946732	0
3	9021	23.583629091141	0
3	9021	23.583629091141	0
3	9039	23.583671091141	0
3	9039	23.583671091141	0
3	9055	23.620413600954	0
3	9055	23.620413600954	0
3	9069	23.620455600954	0
3	9069	23.620455600954	0
3	9090	23.629130818898	0
3	9090	23.629130818898	0
3	9108	23.629172818898	0
3	9108	23.629172818898	0
3	9158	23.893585837757	0
3	9158	23.893585837757	0
3	9174	23.893627837757	0
3	9174	23.893627837757	0
3	9195	23.927096564099	0
3	9195	23.927096564099	0
3	9205	23.927138564099	0
3	9205	23.927138564099	0
3	9227	23.964644050691	0
3	9227	23.964644050691	2
3	9228	23.964644050691	2
3	9228	23.964644050691	0
3	9231	23.964644050691	0
3	9231	23.964644050691	0
3	9240	23.964686050691	0
3	9240	23.964686050691	0
3	9270	23.977612949925	0
3	9270	23.977612949925	0
3	9284	23.977654949925	0
3	9284	23.977654949925	0
3	9305	23.983629098312	0
3	9305	23.983629098312	0
3	9323	23.983671098312	0
3	9323	23.983671098312	0
3	9339	24.020413602839	0
3	9339	24.020413602839	0
3	9353	24.020455602839	0
3	9353	24.020455602839	0
3	9374	24.029130839695	0
3	9374	24.029130839695	0
3	9392	24.029172839695	0
3	9392	24.029172839695	0
3	9442	24.29358585399	0
3	9442	24.29358585399	0
3	9458	24.29362785399	0
3	9458	24.29362785399	0
3	9479	24.327096565649	0
3	9479	24.327096565649	0
3	9489	24.327138565649	0
3	9489	24.327138565649	0
3	9511	24.364644050691	0
3	9511	24.364644050691	2
3	9512	24.364644050691	2
3	9512	24.364644050691	0
3	9515	24.364644050691	0
3	9515	24.364644050691	0
3	9524	24.364686050691	0
3	9524	24.364686050691	0
3	9554	24.37761294913	0
3	9554	24.37761294913	0
3	9568	24.37765494913	0
3	9568	24.37765494913	0
3	9589	24.383629104615	0
3	9589	24.383629104615	0
3	9607	24.383671104615	0
3	9607	24.383671104615	0
3	9623	24.420413601993	0
3	9623	24.420413601993	0
3	9637	24.420455601993	0
3	9637	24.420455601993	0
3	9658	24.429130853392	0
3	9658	24.429130853392	0
3	9676	24.429172853392	0
3	9676	24.429172853392	0
3	9725	24.693585857535	0
3	9725	24.693585857535	0
3	9739	24.693627857535	0
3	9739	24.693627857535	0
3	9763	24.72709655902	0
3	9763	24.72709655902	0
3	9773	24.72713855902	0
3	9773	24.72713855902	0
3	9795	24.764644050691	0
3	9795	24.764644050691	2
3	9796	24.764644050691	2
3	9796	24.764644050691	0
3	9799	24.764644050691	0
3	9799	24.764644050691	0
3	9808	24.764686050691	0
3	9808	24.764686050691	0
3	9837	24.777612937003	0
3	9837	24.777612937003	0
3	9849	24.777654937003	0
3	9849	24.777654937003	0
3	9873	24.783629099638	0
3	9873	24.783629099638	0
3	9891	24.783671099638	0
[...]
2	3574	14.693585782295	3
2	3586	14.693627782295	1
2	3604	14.727096560949	3
2	3612	14.727138560949	1
2	3627	14.764644050691	0
2	3634	14.764686050691	1
2	3658	14.783629068356	3
2	3670	14.783671068356	1
2	3684	14.820413603079	3
2	3694	14.820455603079	1
2	3738	15.093585791205	3
2	3750	15.093627791205	1
2	3770	15.127096561025	3
2	3779	15.127138561025	1
2	3801	15.164644050691	0
2	3809	15.164686050691	1
2	3837	15.183629073238	3
2	3852	15.183671073238	1
2	3866	15.220413600954	3
2	3877	15.220455600954	1
2	3897	15.229130802966	3
2	3912	15.229172802966	1
2	3956	15.493585802149	3
2	3971	15.493627802149	1
2	3989	15.527096561106	3
2	3998	15.527138561106	1
2	4021	15.564644050691	0
2	4029	15.564686050691	1
2	4057	15.583629078835	3
2	4072	15.583671078835	1
2	4087	15.620413600954	3
2	4100	15.620455600954	1
2	4117	15.629130814448	3
2	4132	15.629172814448	1
2	4176	15.893585814911	3
2	4191	15.893627814911	1
2	4209	15.927096561198	3
2	4218	15.927138561198	1
2	4241	15.964644050691	0
2	4249	15.964686050691	1
2	4277	15.983629085258	3
2	4292	15.983671085258	1
2	4307	16.020413600954	3
2	4320	16.020455600954	1
2	4337	16.029130825548	3
2	4352	16.029172825548	1
2	4396	16.293585829274	3
2	4411	16.293627829274	1
2	4429	16.327096561287	3
2	4438	16.327138561287	1
2	4461	16.364644050691	0
2	4469	16.364686050691	1
2	4497	16.383629092619	3
2	4512	16.383671092619	1
2	4527	16.420413601352	3
2	4540	16.420455601352	1
2	4557	16.42913083644	3
2	4572	16.42917283644	1
2	4616	16.693585846553	3
2	4631	16.693627846553	1
2	4649	16.727096563683	3
2	4658	16.727138563683	1
2	4681	16.764644050691	0
2	4689	16.764686050691	1
2	4717	16.783629101383	3
2	4732	16.783671101383	1
2	4747	16.820413603313	3
2	4760	16.820455603313	1
2	4777	16.829130844718	3
2	4792	16.829172844718	1
2	4836	17.093585857136	3
2	4851	17.093627857136	1
2	4869	17.127096561639	3
2	4878	17.127138561639	1
2	4901	17.164644050691	0
2	4909	17.164686050691	1
2	4937	17.183629102592	3
2	4952	17.183671102592	1
2	4967	17.220413598605	3
2	4980	17.220455598605	1
2	4997	17.229130840784	3
2	5012	17.229172840784	1
2	5056	17.493585849553	3
2	5071	17.493627849553	1
2	5089	17.527096553142	3
2	5098	17.527138553142	1
2	5121	17.564644050691	0
2	5129	17.564686050691	1
2	5157	17.583629095184	3
2	5172	17.583671095184	1
2	5187	17.620413585547	3
2	5200	17.620455585547	1
2	5217	17.629130826675	3
2	5232	17.629172826675	1
2	5276	17.893585832405	3
2	5291	17.893627832405	1
2	5308	17.927096544811	3
2	5315	17.927138544811	1
2	5341	17.964644050691	0
2	5349	17.964686050691	1
2	5377	17.983629087727	3
2	5392	17.983671087727	1
2	5406	18.020413572296	3
2	5417	18.020455572296	1
2	5437	18.029130812496	3
2	5452	18.029172812496	1
2	5496	18.293585817867	3
2	5511	18.293627817867	1
2	5528	18.327096542622	3
2	5535	18.327138542622	1
2	5561	18.364644050691	0
2	5569	18.364686050691	1
2	5597	18.383629083869	3
2	5612	18.383671083869	1
2	5626	18.420413561724	3
2	5637	18.420455561724	1
2	5657	18.429130798935	3
2	5672	18.429172798935	1
2	5716	18.693585804891	3
2	5731	18.693627804891	1
2	5748	18.727096546892	3
2	5755	18.727138546892	1
2	5781	18.764644050691	0
2	5789	18.764686050691	1
2	5817	18.783629083721	3
2	5832	18.783671083721	1
2	5846	18.82041355429	3
2	5857	18.82045555429	1
2	5876	18.829130786226	3
2	5889	18.829172786226	1
2	5936	19.09358579369	3
2	5951	19.09362779369	1
2	5969	19.127096555996	3
2	5978	19.127138555996	1
2	6001	19.164644050691	0
2	6009	19.164686050691	1
2	6037	19.183629087287	3
2	6052	19.183671087287	1
2	6066	19.22041355038	3
2	6077	19.22045555038	1
2	6096	19.229130774745	3
2	6109	19.229172774745	1
2	6156	19.493585784535	3
2	6171	19.493627784535	1
2	6189	19.527096563648	3
2	6198	19.527138563648	1
2	6221	19.564644050691	0
2	6229	19.564686050691	1
2	6257	19.583629094448	3
2	6272	19.583671094448	1
2	6286	19.620413550224	3
2	6297	19.620455550224	1
2	6316	19.62913076484	3
2	6329	19.62917276484	1
2	6375	19.893585777582	3
2	6388	19.893627777582	1
2	6409	19.927096563833	3
2	6418	19.927138563833	1
2	6441	19.964644050691	0
2	6449	19.964686050691	1
2	6477	19.983629102589	3
2	6492	19.983671102589	1
2	6506	20.02041355383	3
2	6517	20.02045555383	1
2	6536	20.029130756878	3
2	6549	20.029172756878	1
2	6601	20.293585772962	3
2	6615	20.293627772962	1
2	6639	20.327096562164	3
2	6649	20.327138562164	1
2	6675	20.364644050691	0
2	6684	20.364686050691	1
2	6714	20.377612974242	3
2	6728	20.377654974242	1
2	6749	20.383629102229	3
2	6767	20.383671102229	1
2	6782	20.420413560987	3
2	6794	20.420455560987	1
2	6817	20.42913075122	3
2	6833	20.42917275122	1
2	6885	20.693585770834	3
2	6899	20.693627770834	1
2	6923	20.72709656227	3
2	6933	20.72713856227	1
2	6959	20.764644050691	0
2	6968	20.764686050691	1
2	6998	20.77761296709	3
2	7012	20.77765496709	1
2	7033	20.783629094535	3
2	7051	20.783671094535	1
2	7066	20.820413571318	3
2	7078	20.820455571318	1
2	7100	20.829130748272	3
2	7114	20.829172748272	1
2	7169	21.093585771264	3
2	7183	21.093627771264	1
2	7207	21.127096562349	3
2	7217	21.127138562349	1
2	7243	21.164644050691	0
2	7252	21.164686050691	1
2	7282	21.177612960515	3
2	7296	21.177654960515	1
2	7317	21.183629088568	3
2	7335	21.183671088568	1
2	7350	21.220413584366	3
2	7362	21.220455584366	1
2	7384	21.229130748412	3
2	7398	21.229172748412	1
2	7453	21.493585774211	3
2	7467	21.493627774211	1
2	7491	21.527096562428	3
2	7501	21.527138562428	1
2	7527	21.564644050691	0
2	7536	21.564686050691	1
2	7565	21.577612954735	3
2	7577	21.577654954735	1
2	7601	21.583629084392	3
2	7619	21.583671084392	1
2	7634	21.620413597521	3
2	7646	21.620455597521	1
2	7668	21.629130751927	3
2	7682	21.629172751927	1
2	7737	21.893585779604	3
2	7751	21.893627779604	1
2	7775	21.927096562481	3
2	7785	21.927138562481	1
2	7811	21.964644050691	0
2	7820	21.964686050691	1
2	7849	21.977612949999	3
2	7861	21.977654949999	1
2	7885	21.983629082023	3
2	7903	21.983671082023	1
2	7918	22.020413603343	3
2	7930	22.020455603343	1
2	7953	22.029130759028	3
2	7969	22.029172759028	1
2	8021	22.29358578732	3
2	8035	22.29362778732	1
2	8059	22.327096562576	3
2	8069	22.327138562576	1
2	8095	22.364644050691	0
2	8104	22.364686050691	1
2	8133	22.377612946608	3
2	8145	22.377654946608	1
2	8169	22.383629081526	3
2	8187	22.383671081526	1
2	8202	22.42041360159	3
2	8214	22.42045560159	1
2	8238	22.4291307696	3
2	8256	22.4291727696	1
2	8306	22.693585797161	3
2	8322	22.693627797161	1
2	8343	22.727096562696	3
2	8353	22.727138562696	1
2	8379	22.764644050691	0
2	8388	22.764686050691	1
2	8417	22.77761294478	3
2	8429	22.77765494478	1
2	8453	22.783629082877	3
2	8471	22.783671082877	1
2	8486	22.820413600954	3
2	8498	22.820455600954	1
2	8522	22.829130783304	3
2	8540	22.829172783304	1
2	8590	23.093585808923	3
2	8606	23.093627808923	1
2	8627	23.127096562781	3
2	8637	23.127138562781	1
2	8663	23.164644050691	0
2	8672	23.164686050691	1
2	8701	23.17761294475	3
2	8713	23.17765494475	1
2	8737	23.183629086098	3
2	8755	23.183671086098	1
2	8771	23.220413600954	3
2	8785	23.220455600954	1
2	8806	23.22913079984	3
2	8824	23.22917279984	1
2	8874	23.49358582241	3
2	8890	23.49362782241	1
2	8911	23.52709656287	3
2	8921	23.52713856287	1
2	8947	23.564644050691	0
2	8956	23.564686050691	1
2	8985	23.577612946732	3
2	8997	23.577654946732	1
2	9021	23.583629091141	3
2	9039	23.583671091141	1
2	9055	23.620413600954	3
2	9069	23.620455600954	1
2	9090	23.629130818898	3
2	9108	23.629172818898	1
2	9158	23.893585837757	3
2	9174	23.893627837757	1
2	9195	23.927096564099	3
2	9205	23.927138564099	1
2	9231	23.964644050691	0
2	9240	23.964686050691	1
2	9270	23.977612949925	3
2	9284	23.977654949925	1
2	9305	23.983629098312	3
2	9323	23.983671098312	1
2	9339	24.020413602839	3
2	9353	24.020455602839	1
2	9374	24.029130839695	3
2	9392	24.029172839695	1
2	9442	24.29358585399	3
2	9458	24.29362785399	1
2	9479	24.327096565649	3
2	9489	24.327138565649	1
2	9515	24.364644050691	0
2	9524	24.364686050691	1
2	9554	24.37761294913	3
2	9568	24.37765494913	1
2	9589	24.383629104615	3
2	9607	24.383671104615	1
2	9623	24.420413601993	3
2	9637	24.420455601993	1
2	9658	24.429130853392	3
2	9676	24.429172853392	1
2	9725	24.693585857535	3
2	9739	24.693627857535	1
2	9763	24.72709655902	3
2	9773	24.72713855902	1
2	9799	24.764644050691	0
2	9808	24.764686050691	1
2	9837	24.777612937003	3
2	9849	24.777654937003	1
2	9873	24.783629099638	3
2	9891	24.783671099638	1
2	9907	24.820413592117	3
2	9921	24.820455592117	1
2	9942	24.82913085587	3
2	9960	24.82917285587	1
2	10009	25.093585842587	3
2	10023	25.093627842587	1
2	10047	25.127096549664	3
2	10057	25.127138549664	1
2	10083	25.164644050691	0
2	10092	25.164686050691	1
2	10121	25.17761292369	3
2	10133	25.17765492369	1
2	10157	25.183629091286	3
2	10175	25.183671091286	1
2	10191	25.220413578449	3
2	10205	25.220455578449	1
2	10226	25.229130849686	3
2	10244	25.229172849686	1
2	10293	25.493585826375	3
2	10307	25.493627826375	1
2	10330	25.527096544124	3
2	10338	25.527138544124	1
2	10367	25.564644050691	0
2	10376	25.564686050691	1
2	10404	25.577612912696	3
2	10414	25.577654912696	1
2	10441	25.583629085477	3
2	10459	25.583671085477	1
2	10474	25.620413566513	3
2	10486	25.620455566513	1
2	10510	25.629130831614	3
2	10528	25.629172831614	1
2	10577	25.893585812604	3
2	10591	25.893627812604	1
2	10614	25.927096544975	3
2	10622	25.927138544975	1
2	10651	25.964644050691	0
2	10660	25.964686050691	1
2	10688	25.977612903484	3
2	10698	25.977654903484	1
2	10725	25.983629083337	3
2	10743	25.983671083337	1
2	10758	26.020413557494	3
2	10770	26.020455557494	1
2	10793	26.029130811378	3
2	10809	26.029172811378	1
2	10861	26.293585800503	3
2	10875	26.293627800503	1
2	10899	26.327096552063	3
2	10909	26.327138552063	1
2	10935	26.364644050691	0
2	10944	26.364686050691	1
2	10972	26.377612896341	3
2	10982	26.377654896341	1
2	11009	26.38362908492	3
2	11027	26.38367108492	1
2	11042	26.420413551826	3
2	11054	26.420455551826	1
2	11077	26.429130793238	3
2	11093	26.429172793238	1
2	11145	26.693585790248	3
2	11159	26.693627790248	1
2	11183	26.727096561845	3
2	11193	26.727138561845	1
2	11219	26.764644050691	0
2	11228	26.764686050691	1
2	11256	26.777612891565	3
2	11266	26.777654891565	1
2	11293	26.783629090185	3
2	11311	26.783671090185	1
2	11326	26.820413549825	3
2	11338	26.820455549825	1
2	11361	26.829130777742	3
2	11377	26.829172777742	1
2	11429	27.093585782123	3
2	11443	27.093627782123	1
2	11467	27.127096566127	3
2	11477	27.127138566127	1
2	11503	27.164644050691	0
2	11512	27.164686050691	1
2	11540	27.177612889423	3
2	11550	27.177654889423	1
2	11577	27.183629098354	3
2	11595	27.183671098354	1
2	11610	27.220413551611	3
2	11622	27.220455551611	1
2	11645	27.229130765191	3
2	11661	27.229172765191	1
2	11713	27.493585776233	3
2	11727	27.493627776233	1
2	11751	27.527096564327	3
2	11761	27.527138564327	1
2	11787	27.564644050691	0
2	11796	27.564686050691	1
2	11824	27.577612889853	3
2	11834	27.577654889853	1
2	11861	27.583629104459	3
2	11879	27.583671104459	1
2	11894	27.620413557076	3
2	11906	27.620455557076	1
2	11929	27.629130755889	3
2	11945	27.629172755889	1
2	11997	27.893585772768	3
2	12011	27.893627772768	1
2	12035	27.927096563877	3
2	12045	27.927138563877	1
2	12071	27.964644050691	0
2	12080	27.964686050691	1
2	12108	27.97761289247	3
2	12118	27.97765489247	1
2	12145	27.983629100256	3
2	12163	27.983671100256	1
2	12178	28.020413565914	3
2	12190	28.020455565914	1
2	12213	28.029130750085	3
2	12229	28.029172750085	1
2	12281	28.293585771823	3
2	12295	28.293627771823	1
2	12319	28.327096563954	3
2	12329	28.327138563954	1
2	12355	28.364644050691	0
2	12364	28.364686050691	1
2	12392	28.377612897208	3
2	12402	28.377654897208	1
2	12429	28.383629092746	3
2	12447	28.383671092746	1
2	12462	28.420413577696	3
2	12474	28.420455577696	1
2	12496	28.429130747943	3
2	12510	28.429172747943	1
2	12565	28.693585773439	3
2	12579	28.693627773439	1
2	12603	28.727096564038	3
2	12613	28.727138564038	1
2	12639	28.764644050691	0
2	12648	28.764686050691	1
2	12676	28.777612904007	3
2	12686	28.777654904007	1
2	12713	28.783629087584	3
2	12731	28.783671087584	1
2	12746	28.820413591432	3
2	12758	28.820455591432	1
2	12780	28.829130749536	3
2	12794	28.829172749536	1
2	12849	29.093585777525	3
2	12863	29.093627777525	1
2	12887	29.127096564066	3
2	12897	29.127138564066	1
2	12923	29.164644050691	0
2	12932	29.164686050691	1
2	12960	29.177612912668	3
2	12970	29.177654912668	1
2	12997	29.183629084208	3
2	13015	29.183671084208	1
2	13030	29.220413601633	3
2	13042	29.220455601633	1
2	13065	29.229130754801	3
2	13081	29.229172754801	1
2	13133	29.493585784008	3
2	13147	29.493627784008	1
2	13171	29.527096564188	3
2	13181	29.527138564188	1
2	13207	29.564644050691	0
2	13216	29.564686050691	1
2	13244	29.577612923133	3
2	13254	29.577654923133	1
2	13280	29.58362908269	3
2	13296	29.58367108269	1
2	13314	29.620413603005	3
2	13326	29.620455603005	1
2	13349	29.629130763602	3
2	13365	29.629172763602	1
2	13418	29.893585792705	3
2	13434	29.893627792705	1
2	13455	29.927096564289	3
2	13465	29.927138564289	1
2	13491	29.964644050691	0
2	13500	29.964686050691	1
2	13528	29.977612936501	3
2	13538	29.977654936501	1
2	13564	29.983629083043	3
2	13580	29.983671083043	1
2	13598	30.020413600954	3
2	13610	30.020455600954	1
2	13634	30.029130775683	3
2	13652	30.029172775683	1
2	13702	30.293585803451	3
2	13718	30.293627803451	1
2	13739	30.32709656437	3
2	13749	30.32713856437	1
2	13775	30.364644050691	0
2	13784	30.364686050691	1
2	13812	30.377612944547	3
2	13822	30.377654944547	1
2	13848	30.38362908526	3
2	13864	30.38367108526	1
2	13882	30.420413600954	3
2	13894	30.420455600954	1
2	13918	30.429130790762	3
2	13936	30.429172790762	1
2	13986	30.693585816025	3
2	14002	30.693627816025	1
2	14023	30.727096564464	3
2	14033	30.727138564464	1
2	14059	30.764644050691	0
2	14068	30.764686050691	1
2	14097	30.777612945059	3
2	14109	30.777654945059	1
2	14133	30.78362908933	3
2	14151	30.78367108933	1
2	14167	30.820413600954	3
2	14181	30.820455600954	1
2	14202	30.829130808535	3
2	14220	30.829172808535	1
2	14270	31.093585830209	3
2	14286	31.093627830209	1
2	14307	31.127096564526	3
2	14317	31.127138564526	1
2	14343	31.164644050691	0
2	14352	31.164686050691	1
2	14381	31.177612944903	3
2	14393	31.177654944903	1
2	14417	31.183629095142	3
2	14435	31.183671095142	1
0	2	0.1	0
0	2	0.1	2
0	16	0.364644050691	3
0	19	0.364686050691	2
0	34	0.614644050691	3
0	37	0.614686050691	2
0	51	0.864644050691	3
0	54	0.864686050691	2
0	69	1.114644050691	3
0	72	1.114686050691	2
0	86	1.364644050691	3
0	89	1.364686050691	2
0	104	1.614644050691	3
0	107	1.614686050691	2
0	121	1.864644050691	3
0	124	1.864686050691	2
0	141	2.114644050691	3
0	145	2.114686050691	2
0	180	2.364644050691	3
0	184	2.364686050691	2
0	224	2.764644050691	3
0	228	2.764686050691	2
0	268	3.164644050691	3
0	272	3.164686050691	2
0	312	3.564644050691	3
0	316	3.564686050691	2
0	356	3.964644050691	3
0	360	3.964686050691	2
0	400	4.364644050691	3
0	404	4.364686050691	2
0	444	4.764644050691	3
0	448	4.764686050691	2
0	494	5.164644050691	3
0	499	5.164686050691	2
0	573	5.564644050691	3
0	578	5.564686050691	2
0	649	5.964644050691	3
0	654	5.964686050691	2
0	725	6.364644050691	3
0	730	6.364686050691	2
0	801	6.764644050691	3
0	806	6.764686050691	2
0	883	7.164644050691	3
0	889	7.164686050691	2
0	997	7.564644050691	3
0	1003	7.564686050691	2
0	1113	7.964644050691	3
0	1119	7.964686050691	2
0	1229	8.364644050691	3
0	1235	8.364686050691	2
0	1345	8.764644050691	3
0	1351	8.764686050691	2
0	1461	9.164644050691	3
0	1467	9.164686050691	2
0	1577	9.564644050691	3
0	1583	9.564686050691	2
0	1693	9.964644050691	3
0	1699	9.964686050691	2
0	1823	10.364644050691	3
0	1830	10.364686050691	2
0	1987	10.764644050691	3
0	1994	10.764686050691	2
0	2151	11.164644050691	3
0	2158	11.164686050691	2
0	2315	11.564644050691	3
0	2322	11.564686050691	2
0	2479	11.964644050691	3
0	2486	11.964686050691	2
0	2643	12.364644050691	3
0	2650	12.364686050691	2
0	2807	12.764644050691	3
0	2814	12.764686050691	2
0	2971	13.164644050691	3
0	2978	13.164686050691	2
0	3135	13.564644050691	3
0	3142	13.564686050691	2
0	3299	13.964644050691	3
0	3306	13.964686050691	2
0	3463	14.364644050691	3
0	3470	14.364686050691	2
0	3627	14.764644050691	3
0	3634	14.764686050691	2
0	3801	15.164644050691	3
0	3809	15.164686050691	2
0	4021	15.564644050691	3
0	4029	15.564686050691	2
0	4241	15.964644050691	3
0	4249	15.964686050691	2
0	4461	16.364644050691	3
0	4469	16.364686050691	2
0	4681	16.764644050691	3
0	4689	16.764686050691	2
0	4901	17.164644050691	3
0	4909	17.164686050691	2
0	5121	17.564644050691	3
0	5129	17.564686050691	2
0	5341	17.964644050691	3
0	5349	17.964686050691	2
0	5561	18.364644050691	3
0	5569	18.364686050691	2
0	5781	18.764644050691	3
0	5789	18.764686050691	2
0	6001	19.164644050691	3
0	6009	19.164686050691	2
0	6221	19.564644050691	3
0	6229	19.564686050691	2
0	6441	19.964644050691	3
0	6449	19.964686050691	2
0	6675	20.364644050691	3
0	6684	20.364686050691	2
0	6959	20.764644050691	3
0	6968	20.764686050691	2
0	7243	21.164644050691	3
0	7252	21.164686050691	2
0	7527	21.564644050691	3
0	7536	21.564686050691	2
0	7811	21.964644050691	3
0	7820	21.964686050691	2
0	8095	22.364644050691	3
0	8104	22.364686050691	2
0	8379	22.764644050691	3
0	8388	22.764686050691	2
0	8663	23.164644050691	3
0	8672	23.164686050691	2
0	8947	23.564644050691	3
0	8956	23.564686050691	2
0	9231	23.964644050691	3
0	9240	23.964686050691	2
0	9515	24.364644050691	3
0	9524	24.364686050691	2
0	9799	24.764644050691	3
0	9808	24.764686050691	2
0	10083	25.164644050691	3
0	10092	25.164686050691	2
0	10367	25.564644050691	3
0	10376	25.564686050691	2
0	10651	25.964644050691	3
0	10660	25.964686050691	2
0	10935	26.364644050691	3
0	10944	26.364686050691	2
0	11219	26.764644050691	3
0	11228	26.764686050691	2
0	11503	27.164644050691	3
0	11512	27.164686050691	2
0	11787	27.564644050691	3
0	11796	27.564686050691	2
0	12071	27.964644050691	3
0	12080	27.964686050691	2
0	12355	28.364644050691	3
0	12364	28.364686050691	2
0	12639	28.764644050691	3
0	12648	28.764686050691	2
0	12923	29.164644050691	3
0	12932	29.164686050691	2
0	13207	29.564644050691	3
0	13216	29.564686050691	2
0	13491	29.964644050691	3
0	13500	29.964686050691	2
0	13775	30.364644050691	3
0	13784	30.364686050691	2
0	14059	30.764644050691	3
0	14068	30.764686050691	2
0	14343	31.164644050691	3
0	14352	31.164686050691	2
1	2	0.1	0
1	9	0.264644050691	0
1	27	0.514644050691	0
1	44	0.764644050691	0
1	62	1.014644050691	0
1	79	1.264644050691	0
1	97	1.514644050691	0
1	114	1.764644050691	0
1	132	2.014644050691	0
1	159	2.264644050691	0
1	203	2.664644050691	0
1	247	3.064644050691	0
1	291	3.464644050691	0
1	335	3.864644050691	0
1	379	4.264644050691	0
1	423	4.664644050691	0
1	467	5.064644050691	0
1	543	5.464644050691	0
1	619	5.864644050691	0
1	695	6.264644050691	0
1	771	6.664644050691	0
1	847	7.064644050691	0
1	941	7.464644050691	0
1	1057	7.864644050691	0
1	1173	8.264644050691	0
1	1289	8.664644050691	0
1	1405	9.064644050691	0
1	1521	9.464644050691	0
1	1637	9.864644050691	0
1	1755	10.264644050691	0
1	1918	10.664644050691	0
1	2082	11.064644050691	0
1	2246	11.464644050691	0
1	2410	11.864644050691	0
1	2574	12.264644050691	0
1	2738	12.664644050691	0
1	2902	13.064644050691	0
1	3066	13.464644050691	0
1	3230	13.864644050691	0
1	3394	14.264644050691	0
1	3558	14.664644050691	0
1	3722	15.064644050691	0
1	3939	15.464644050691	0
1	4159	15.864644050691	0
1	4379	16.264644050691	0
1	4599	16.664644050691	0
1	4819	17.064644050691	0
1	5039	17.464644050691	0
1	5259	17.864644050691	0
1	5479	18.264644050691	0
1	5699	18.664644050691	0
1	5919	19.064644050691	0
1	6139	19.464644050691	0
1	6359	19.864644050691	0
1	6581	20.264644050691	0
1	6864	20.664644050691	0
1	7148	21.064644050691	0
1	7432	21.464644050691	0
1	7716	21.864644050691	0
1	8000	22.264644050691	0
1	8284	22.664644050691	0
1	8568	23.064644050691	0
1	8852	23.464644050691	0
1	9136	23.864644050691	0
1	9420	24.264644050691	0
1	9704	24.664644050691	0
1	9988	25.064644050691	0
1	10272	25.464644050691	0
1	10556	25.864644050691	0
1	10840	26.264644050691	0
1	11124	26.664644050691	0
1	11408	27.064644050691	0
1	11692	27.464644050691	0
1	11976	27.864644050691	0
1	12260	28.264644050691	0
1	12544	28.664644050691	0
1	12828	29.064644050691	0
1	13112	29.464644050691	0
1	13396	29.864644050691	0
1	13680	30.264644050691	0
1	13964	30.664644050691	0
1	14248	31.064644050691	0
