file 6871991 1592920971                                         
version 2
run General-0-20200623-19:31:13-9256
attr configname General
attr datetime 20200623-19:31:13
attr experiment General
attr inifile omnetpp.ini
attr iterationvars ""
attr iterationvarsf ""
attr measurement ""
attr network Beacon
attr processid 9256
attr repetition 0
attr replication #0
attr resultdir results
attr runnumber 0
attr seedset 0
param **.constraintAreaMinX 0m
param **.constraintAreaMinY 0m
param **.constraintAreaMinZ 0m
param **.constraintAreaMaxX 1000m
param **.constraintAreaMaxY 1000m
param **.constraintAreaMaxZ 0m
param **.mobility.initFromDisplayString true
param **.host*.mobilityType "\"LinearMobility\""
param **.host*.mobility.speed 10mps
param **.host*.mobility.angle 0deg
param **.host*.mobility.acceleration 0
param **.host*.mobility.updateInterval 100ms
param Beacon.accessPoint[*].mobilityType "\"StationaryMobility\""
param Beacon.accessPoint[*].wlan[*].mgmtType "\"Ieee80211MgmtAP\""
param Beacon.accessPoint[*].wlan[*].radioType "\"Ieee80211ScalarRadio\""
param Beacon.accessPoint[*].wlan[*].opMode "\"g(mixed)\""
param Beacon.accessPoint[*].wlan[*].bitrate 54Mbps
param Beacon.accessPoint[*].wlan[*].mac.typename "\"CsmaCaMac\""
param Beacon.accessPoint[*].wlan[*].mgmt.ssid "\"SSID\""
param Beacon.accessPoint[*].wlan[*].mgmt.beaconInterval 50ms
param Beacon.accessPoint[*].wlan[*].radio.carrierFrequency 2.412GHz
param Beacon.accessPoint[*].wlan[*].radio.bandwidth 20MHz
param Beacon.accessPoint[*].wlan[*].radio.transmitter.power 2.0mW
param Beacon.accessPoint[*].wlan[*].radio.transmitter.modulation "\"BPSK\""
param Beacon.accessPoint[*].wlan[*].radio.receiver.sensitivity -85dBm
param Beacon.radioMedium.physicalEnvironmentModule "\"physicalEnvironment\""
param Beacon.radioMedium.propagationType "\"ConstantSpeedPropagation\""
param Beacon.radioMedium.pathLossType "\"NakagamiFading\""
param Beacon.radioMedium.analogModelType "\"ScalarAnalogModel\""
param Beacon.iPv4NetworkConfigurator.config "xml(\"<config><interface hosts='**' address='10.x.x.x' netmask='255.x.x.x'/></config>\")"
param *.visualizer.*.mediumVisualizer.displayCommunicationRanges true
param Beacon.accessPoint[*].wlan[*].radio.displayCommunicationRange true

vector 0 Beacon.accessPoint[0].wlan[0].radio radioMode:vector ETV
attr interpolationmode sample-hold
attr source radioModeChanged
attr title "Radio mode, vector"
vector 1 Beacon.accessPoint[0].wlan[0].radio radioChannel:vector ETV
attr interpolationmode sample-hold
attr source radioChannelChanged
attr title "Radio channel, vector"
vector 2 Beacon.accessPoint[1].wlan[0].radio radioMode:vector ETV
attr interpolationmode sample-hold
attr source radioModeChanged
attr title "Radio mode, vector"
vector 3 Beacon.accessPoint[1].wlan[0].radio radioChannel:vector ETV
attr interpolationmode sample-hold
attr source radioChannelChanged
attr title "Radio channel, vector"
vector 4 Beacon.accessPoint[2].wlan[0].radio radioMode:vector ETV
attr interpolationmode sample-hold
attr source radioModeChanged
attr title "Radio mode, vector"
vector 5 Beacon.accessPoint[2].wlan[0].radio radioChannel:vector ETV
attr interpolationmode sample-hold
attr source radioChannelChanged
attr title "Radio channel, vector"
vector 6 Beacon.accessPoint[3].wlan[0].radio radioMode:vector ETV
attr interpolationmode sample-hold
attr source radioModeChanged
attr title "Radio mode, vector"
vector 7 Beacon.accessPoint[3].wlan[0].radio radioChannel:vector ETV
attr interpolationmode sample-hold
attr source radioChannelChanged
attr title "Radio channel, vector"
vector 8 Beacon.accessPoint[4].wlan[0].radio radioMode:vector ETV
attr interpolationmode sample-hold
attr source radioModeChanged
attr title "Radio mode, vector"
vector 9 Beacon.accessPoint[4].wlan[0].radio radioChannel:vector ETV
attr interpolationmode sample-hold
attr source radioChannelChanged
attr title "Radio channel, vector"
vector 10 Beacon.accessPoint[5].wlan[0].radio radioMode:vector ETV
attr interpolationmode sample-hold
attr source radioModeChanged
attr title "Radio mode, vector"
vector 11 Beacon.accessPoint[5].wlan[0].radio radioChannel:vector ETV
attr interpolationmode sample-hold
attr source radioChannelChanged
attr title "Radio channel, vector"
vector 12 Beacon.accessPoint[6].wlan[0].radio radioMode:vector ETV
attr interpolationmode sample-hold
attr source radioModeChanged
attr title "Radio mode, vector"
vector 13 Beacon.accessPoint[6].wlan[0].radio radioChannel:vector ETV
attr interpolationmode sample-hold
attr source radioChannelChanged
attr title "Radio channel, vector"
vector 14 Beacon.accessPoint[7].wlan[0].radio radioMode:vector ETV
attr interpolationmode sample-hold
attr source radioModeChanged
attr title "Radio mode, vector"
vector 15 Beacon.accessPoint[7].wlan[0].radio radioChannel:vector ETV
attr interpolationmode sample-hold
attr source radioChannelChanged
attr title "Radio channel, vector"
vector 16 Beacon.accessPoint[8].wlan[0].radio radioMode:vector ETV
attr interpolationmode sample-hold
attr source radioModeChanged
attr title "Radio mode, vector"
vector 17 Beacon.accessPoint[8].wlan[0].radio radioChannel:vector ETV
attr interpolationmode sample-hold
attr source radioChannelChanged
attr title "Radio channel, vector"
vector 18 Beacon.accessPoint[9].wlan[0].radio radioMode:vector ETV
attr interpolationmode sample-hold
attr source radioModeChanged
attr title "Radio mode, vector"
vector 19 Beacon.accessPoint[9].wlan[0].radio radioChannel:vector ETV
attr interpolationmode sample-hold
attr source radioChannelChanged
attr title "Radio channel, vector"
vector 20 Beacon.accessPoint[10].wlan[0].radio radioMode:vector ETV
attr interpolationmode sample-hold
attr source radioModeChanged
attr title "Radio mode, vector"
vector 21 Beacon.accessPoint[10].wlan[0].radio radioChannel:vector ETV
attr interpolationmode sample-hold
attr source radioChannelChanged
attr title "Radio channel, vector"
vector 22 Beacon.accessPoint[11].wlan[0].radio radioMode:vector ETV
attr interpolationmode sample-hold
attr source radioModeChanged
attr title "Radio mode, vector"
vector 23 Beacon.accessPoint[11].wlan[0].radio radioChannel:vector ETV
attr interpolationmode sample-hold
attr source radioChannelChanged
attr title "Radio channel, vector"
vector 24 Beacon.accessPoint[12].wlan[0].radio radioMode:vector ETV
attr interpolationmode sample-hold
attr source radioModeChanged
attr title "Radio mode, vector"
vector 25 Beacon.accessPoint[12].wlan[0].radio radioChannel:vector ETV
attr interpolationmode sample-hold
attr source radioChannelChanged
attr title "Radio channel, vector"
vector 26 Beacon.accessPoint[13].wlan[0].radio radioMode:vector ETV
attr interpolationmode sample-hold
attr source radioModeChanged
attr title "Radio mode, vector"
vector 27 Beacon.accessPoint[13].wlan[0].radio radioChannel:vector ETV
attr interpolationmode sample-hold
attr source radioChannelChanged
attr title "Radio channel, vector"
vector 28 Beacon.accessPoint[14].wlan[0].radio radioMode:vector ETV
attr interpolationmode sample-hold
attr source radioModeChanged
attr title "Radio mode, vector"
vector 29 Beacon.accessPoint[14].wlan[0].radio radioChannel:vector ETV
attr interpolationmode sample-hold
attr source radioChannelChanged
attr title "Radio channel, vector"
vector 30 Beacon.accessPoint[15].wlan[0].radio radioMode:vector ETV
attr interpolationmode sample-hold
attr source radioModeChanged
attr title "Radio mode, vector"
vector 31 Beacon.accessPoint[15].wlan[0].radio radioChannel:vector ETV
attr interpolationmode sample-hold
attr source radioChannelChanged
attr title "Radio channel, vector"
vector 32 Beacon.accessPoint[16].wlan[0].radio radioMode:vector ETV
attr interpolationmode sample-hold
attr source radioModeChanged
attr title "Radio mode, vector"
vector 33 Beacon.accessPoint[16].wlan[0].radio radioChannel:vector ETV
attr interpolationmode sample-hold
attr source radioChannelChanged
attr title "Radio channel, vector"
vector 34 Beacon.accessPoint[17].wlan[0].radio radioMode:vector ETV
attr interpolationmode sample-hold
attr source radioModeChanged
attr title "Radio mode, vector"
vector 35 Beacon.accessPoint[17].wlan[0].radio radioChannel:vector ETV
attr interpolationmode sample-hold
attr source radioChannelChanged
attr title "Radio channel, vector"
vector 36 Beacon.accessPoint[18].wlan[0].radio radioMode:vector ETV
attr interpolationmode sample-hold
attr source radioModeChanged
attr title "Radio mode, vector"
vector 37 Beacon.accessPoint[18].wlan[0].radio radioChannel:vector ETV
attr interpolationmode sample-hold
attr source radioChannelChanged
attr title "Radio channel, vector"
vector 38 Beacon.accessPoint[19].wlan[0].radio radioMode:vector ETV
attr interpolationmode sample-hold
attr source radioModeChanged
attr title "Radio mode, vector"
vector 39 Beacon.accessPoint[19].wlan[0].radio radioChannel:vector ETV
attr interpolationmode sample-hold
attr source radioChannelChanged
attr title "Radio channel, vector"
vector 40 Beacon.accessPoint[20].wlan[0].radio radioMode:vector ETV
attr interpolationmode sample-hold
attr source radioModeChanged
attr title "Radio mode, vector"
vector 41 Beacon.accessPoint[20].wlan[0].radio radioChannel:vector ETV
attr interpolationmode sample-hold
attr source radioChannelChanged
attr title "Radio channel, vector"
vector 42 Beacon.accessPoint[21].wlan[0].radio radioMode:vector ETV
attr interpolationmode sample-hold
attr source radioModeChanged
attr title "Radio mode, vector"
vector 43 Beacon.accessPoint[21].wlan[0].radio radioChannel:vector ETV
attr interpolationmode sample-hold
attr source radioChannelChanged
attr title "Radio channel, vector"
vector 44 Beacon.accessPoint[22].wlan[0].radio radioMode:vector ETV
attr interpolationmode sample-hold
attr source radioModeChanged
attr title "Radio mode, vector"
vector 45 Beacon.accessPoint[22].wlan[0].radio radioChannel:vector ETV
attr interpolationmode sample-hold
attr source radioChannelChanged
attr title "Radio channel, vector"
vector 46 Beacon.accessPoint[23].wlan[0].radio radioMode:vector ETV
attr interpolationmode sample-hold
attr source radioModeChanged
attr title "Radio mode, vector"
vector 47 Beacon.accessPoint[23].wlan[0].radio radioChannel:vector ETV
attr interpolationmode sample-hold
attr source radioChannelChanged
attr title "Radio channel, vector"
vector 48 Beacon.accessPoint[24].wlan[0].radio radioMode:vector ETV
attr interpolationmode sample-hold
attr source radioModeChanged
attr title "Radio mode, vector"
vector 49 Beacon.accessPoint[24].wlan[0].radio radioChannel:vector ETV
attr interpolationmode sample-hold
attr source radioChannelChanged
attr title "Radio channel, vector"
vector 50 Beacon.accessPoint[25].wlan[0].radio radioMode:vector ETV
attr interpolationmode sample-hold
attr source radioModeChanged
attr title "Radio mode, vector"
vector 51 Beacon.accessPoint[25].wlan[0].radio radioChannel:vector ETV
attr interpolationmode sample-hold
attr source radioChannelChanged
attr title "Radio channel, vector"
vector 52 Beacon.accessPoint[26].wlan[0].radio radioMode:vector ETV
attr interpolationmode sample-hold
attr source radioModeChanged
attr title "Radio mode, vector"
vector 53 Beacon.accessPoint[26].wlan[0].radio radioChannel:vector ETV
attr interpolationmode sample-hold
attr source radioChannelChanged
attr title "Radio channel, vector"
vector 54 Beacon.accessPoint[27].wlan[0].radio radioMode:vector ETV
attr interpolationmode sample-hold
attr source radioModeChanged
attr title "Radio mode, vector"
vector 55 Beacon.accessPoint[27].wlan[0].radio radioChannel:vector ETV
attr interpolationmode sample-hold
attr source radioChannelChanged
attr title "Radio channel, vector"
vector 56 Beacon.accessPoint[28].wlan[0].radio radioMode:vector ETV
attr interpolationmode sample-hold
attr source radioModeChanged
attr title "Radio mode, vector"
vector 57 Beacon.accessPoint[28].wlan[0].radio radioChannel:vector ETV
attr interpolationmode sample-hold
attr source radioChannelChanged
attr title "Radio channel, vector"
vector 58 Beacon.accessPoint[29].wlan[0].radio radioMode:vector ETV
attr interpolationmode sample-hold
attr source radioModeChanged
attr title "Radio mode, vector"
vector 59 Beacon.accessPoint[29].wlan[0].radio radioChannel:vector ETV
attr interpolationmode sample-hold
attr source radioChannelChanged
attr title "Radio channel, vector"
vector 60 Beacon.accessPoint[0].wlan[0].radio receptionState:vector ETV
attr interpolationmode sample-hold
attr source receptionStateChanged
attr title "Radio reception state, vector"
vector 61 Beacon.accessPoint[1].wlan[0].radio receptionState:vector ETV
attr interpolationmode sample-hold
attr source receptionStateChanged
attr title "Radio reception state, vector"
vector 62 Beacon.accessPoint[2].wlan[0].radio receptionState:vector ETV
attr interpolationmode sample-hold
attr source receptionStateChanged
attr title "Radio reception state, vector"
vector 63 Beacon.accessPoint[3].wlan[0].radio receptionState:vector ETV
attr interpolationmode sample-hold
attr source receptionStateChanged
attr title "Radio reception state, vector"
vector 64 Beacon.accessPoint[4].wlan[0].radio receptionState:vector ETV
attr interpolationmode sample-hold
attr source receptionStateChanged
attr title "Radio reception state, vector"
vector 65 Beacon.accessPoint[5].wlan[0].radio receptionState:vector ETV
attr interpolationmode sample-hold
attr source receptionStateChanged
attr title "Radio reception state, vector"
vector 66 Beacon.accessPoint[6].wlan[0].radio receptionState:vector ETV
attr interpolationmode sample-hold
attr source receptionStateChanged
attr title "Radio reception state, vector"
vector 67 Beacon.accessPoint[7].wlan[0].radio receptionState:vector ETV
attr interpolationmode sample-hold
attr source receptionStateChanged
attr title "Radio reception state, vector"
vector 68 Beacon.accessPoint[8].wlan[0].radio receptionState:vector ETV
attr interpolationmode sample-hold
attr source receptionStateChanged
attr title "Radio reception state, vector"
vector 69 Beacon.accessPoint[9].wlan[0].radio receptionState:vector ETV
attr interpolationmode sample-hold
attr source receptionStateChanged
attr title "Radio reception state, vector"
vector 70 Beacon.accessPoint[10].wlan[0].radio receptionState:vector ETV
attr interpolationmode sample-hold
attr source receptionStateChanged
attr title "Radio reception state, vector"
vector 71 Beacon.accessPoint[11].wlan[0].radio receptionState:vector ETV
attr interpolationmode sample-hold
attr source receptionStateChanged
attr title "Radio reception state, vector"
vector 72 Beacon.accessPoint[12].wlan[0].radio receptionState:vector ETV
attr interpolationmode sample-hold
attr source receptionStateChanged
attr title "Radio reception state, vector"
vector 73 Beacon.accessPoint[13].wlan[0].radio receptionState:vector ETV
attr interpolationmode sample-hold
attr source receptionStateChanged
attr title "Radio reception state, vector"
vector 74 Beacon.accessPoint[14].wlan[0].radio receptionState:vector ETV
attr interpolationmode sample-hold
attr source receptionStateChanged
attr title "Radio reception state, vector"
vector 75 Beacon.accessPoint[15].wlan[0].radio receptionState:vector ETV
attr interpolationmode sample-hold
attr source receptionStateChanged
attr title "Radio reception state, vector"
vector 76 Beacon.accessPoint[16].wlan[0].radio receptionState:vector ETV
attr interpolationmode sample-hold
attr source receptionStateChanged
attr title "Radio reception state, vector"
vector 77 Beacon.accessPoint[17].wlan[0].radio receptionState:vector ETV
attr interpolationmode sample-hold
attr source receptionStateChanged
attr title "Radio reception state, vector"
vector 78 Beacon.accessPoint[18].wlan[0].radio receptionState:vector ETV
attr interpolationmode sample-hold
attr source receptionStateChanged
attr title "Radio reception state, vector"
vector 79 Beacon.accessPoint[19].wlan[0].radio receptionState:vector ETV
attr interpolationmode sample-hold
attr source receptionStateChanged
attr title "Radio reception state, vector"
vector 80 Beacon.accessPoint[20].wlan[0].radio receptionState:vector ETV
attr interpolationmode sample-hold
attr source receptionStateChanged
attr title "Radio reception state, vector"
vector 81 Beacon.accessPoint[21].wlan[0].radio receptionState:vector ETV
attr interpolationmode sample-hold
attr source receptionStateChanged
attr title "Radio reception state, vector"
vector 82 Beacon.accessPoint[22].wlan[0].radio receptionState:vector ETV
attr interpolationmode sample-hold
attr source receptionStateChanged
attr title "Radio reception state, vector"
vector 83 Beacon.accessPoint[23].wlan[0].radio receptionState:vector ETV
attr interpolationmode sample-hold
attr source receptionStateChanged
attr title "Radio reception state, vector"
vector 84 Beacon.accessPoint[24].wlan[0].radio receptionState:vector ETV
attr interpolationmode sample-hold
attr source receptionStateChanged
attr title "Radio reception state, vector"
vector 85 Beacon.accessPoint[25].wlan[0].radio receptionState:vector ETV
attr interpolationmode sample-hold
attr source receptionStateChanged
attr title "Radio reception state, vector"
vector 86 Beacon.accessPoint[26].wlan[0].radio receptionState:vector ETV
attr interpolationmode sample-hold
attr source receptionStateChanged
attr title "Radio reception state, vector"
vector 87 Beacon.accessPoint[27].wlan[0].radio receptionState:vector ETV
attr interpolationmode sample-hold
attr source receptionStateChanged
attr title "Radio reception state, vector"
vector 88 Beacon.accessPoint[28].wlan[0].radio receptionState:vector ETV
attr interpolationmode sample-hold
attr source receptionStateChanged
attr title "Radio reception state, vector"
vector 89 Beacon.accessPoint[29].wlan[0].radio receptionState:vector ETV
attr interpolationmode sample-hold
attr source receptionStateChanged
attr title "Radio reception state, vector"
vector 90 Beacon.accessPoint[0].wlan[0].mac.dcf.channelAccess.contention state:vector ETV
attr interpolationmode none
attr source stateChanged
attr title "contention state, vector"
vector 91 Beacon.accessPoint[0].wlan[0].mac.hcf.edca.edcaf[0].contention state:vector ETV
attr interpolationmode none
attr source stateChanged
attr title "contention state, vector"
vector 92 Beacon.accessPoint[0].wlan[0].mac.hcf.edca.edcaf[1].contention state:vector ETV
attr interpolationmode none
attr source stateChanged
attr title "contention state, vector"
vector 93 Beacon.accessPoint[0].wlan[0].mac.hcf.edca.edcaf[2].contention state:vector ETV
attr interpolationmode none
attr source stateChanged
attr title "contention state, vector"
vector 94 Beacon.accessPoint[0].wlan[0].mac.hcf.edca.edcaf[3].contention state:vector ETV
attr interpolationmode none
attr source stateChanged
attr title "contention state, vector"
vector 95 Beacon.accessPoint[1].wlan[0].mac.dcf.channelAccess.contention state:vector ETV
attr interpolationmode none
attr source stateChanged
attr title "contention state, vector"
vector 96 Beacon.accessPoint[1].wlan[0].mac.hcf.edca.edcaf[0].contention state:vector ETV
attr interpolationmode none
attr source stateChanged
attr title "contention state, vector"
vector 97 Beacon.accessPoint[1].wlan[0].mac.hcf.edca.edcaf[1].contention state:vector ETV
attr interpolationmode none
attr source stateChanged
attr title "contention state, vector"
vector 98 Beacon.accessPoint[1].wlan[0].mac.hcf.edca.edcaf[2].contention state:vector ETV
attr interpolationmode none
attr source stateChanged
attr title "contention state, vector"
vector 99 Beacon.accessPoint[1].wlan[0].mac.hcf.edca.edcaf[3].contention state:vector ETV
attr interpolationmode none
attr source stateChanged
attr title "contention state, vector"
vector 100 Beacon.accessPoint[2].wlan[0].mac.dcf.channelAccess.contention state:vector ETV
attr interpolationmode none
attr source stateChanged
attr title "contention state, vector"
vector 101 Beacon.accessPoint[2].wlan[0].mac.hcf.edca.edcaf[0].contention state:vector ETV
attr interpolationmode none
attr source stateChanged
attr title "contention state, vector"
vector 102 Beacon.accessPoint[2].wlan[0].mac.hcf.edca.edcaf[1].contention state:vector ETV
attr interpolationmode none
attr source stateChanged
attr title "contention state, vector"
vector 103 Beacon.accessPoint[2].wlan[0].mac.hcf.edca.edcaf[2].contention state:vector ETV
attr interpolationmode none
attr source stateChanged
attr title "contention state, vector"
vector 104 Beacon.accessPoint[2].wlan[0].mac.hcf.edca.edcaf[3].contention state:vector ETV
attr interpolationmode none
attr source stateChanged
attr title "contention state, vector"
vector 105 Beacon.accessPoint[3].wlan[0].mac.dcf.channelAccess.contention state:vector ETV
attr interpolationmode none
attr source stateChanged
attr title "contention state, vector"
vector 106 Beacon.accessPoint[3].wlan[0].mac.hcf.edca.edcaf[0].contention state:vector ETV
attr interpolationmode none
attr source stateChanged
attr title "contention state, vector"
vector 107 Beacon.accessPoint[3].wlan[0].mac.hcf.edca.edcaf[1].contention state:vector ETV
attr interpolationmode none
attr source stateChanged
attr title "contention state, vector"
vector 108 Beacon.accessPoint[3].wlan[0].mac.hcf.edca.edcaf[2].contention state:vector ETV
attr interpolationmode none
attr source stateChanged
attr title "contention state, vector"
vector 109 Beacon.accessPoint[3].wlan[0].mac.hcf.edca.edcaf[3].contention state:vector ETV
attr interpolationmode none
attr source stateChanged
attr title "contention state, vector"
vector 110 Beacon.accessPoint[4].wlan[0].mac.dcf.channelAccess.contention state:vector ETV
attr interpolationmode none
attr source stateChanged
attr title "contention state, vector"
vector 111 Beacon.accessPoint[4].wlan[0].mac.hcf.edca.edcaf[0].contention state:vector ETV
attr interpolationmode none
attr source stateChanged
attr title "contention state, vector"
vector 112 Beacon.accessPoint[4].wlan[0].mac.hcf.edca.edcaf[1].contention state:vector ETV
attr interpolationmode none
attr source stateChanged
attr title "contention state, vector"
vector 113 Beacon.accessPoint[4].wlan[0].mac.hcf.edca.edcaf[2].contention state:vector ETV
attr interpolationmode none
attr source stateChanged
attr title "contention state, vector"
vector 114 Beacon.accessPoint[4].wlan[0].mac.hcf.edca.edcaf[3].contention state:vector ETV
attr interpolationmode none
attr source stateChanged
attr title "contention state, vector"
vector 115 Beacon.accessPoint[5].wlan[0].mac.dcf.channelAccess.contention state:vector ETV
attr interpolationmode none
attr source stateChanged
attr title "contention state, vector"
vector 116 Beacon.accessPoint[5].wlan[0].mac.hcf.edca.edcaf[0].contention state:vector ETV
attr interpolationmode none
attr source stateChanged
attr title "contention state, vector"
vector 117 Beacon.accessPoint[5].wlan[0].mac.hcf.edca.edcaf[1].contention state:vector ETV
attr interpolationmode none
attr source stateChanged
attr title "contention state, vector"
vector 118 Beacon.accessPoint[5].wlan[0].mac.hcf.edca.edcaf[2].contention state:vector ETV
attr interpolationmode none
attr source stateChanged
attr title "contention state, vector"
vector 119 Beacon.accessPoint[5].wlan[0].mac.hcf.edca.edcaf[3].contention state:vector ETV
attr interpolationmode none
attr source stateChanged
attr title "contention state, vector"
vector 120 Beacon.accessPoint[6].wlan[0].mac.dcf.channelAccess.contention state:vector ETV
attr interpolationmode none
attr source stateChanged
attr title "contention state, vector"
vector 121 Beacon.accessPoint[6].wlan[0].mac.hcf.edca.edcaf[0].contention state:vector ETV
attr interpolationmode none
attr source stateChanged
attr title "contention state, vector"
vector 122 Beacon.accessPoint[6].wlan[0].mac.hcf.edca.edcaf[1].contention state:vector ETV
attr interpolationmode none
attr source stateChanged
attr title "contention state, vector"
vector 123 Beacon.accessPoint[6].wlan[0].mac.hcf.edca.edcaf[2].contention state:vector ETV
attr interpolationmode none
attr source stateChanged
attr title "contention state, vector"
vector 124 Beacon.accessPoint[6].wlan[0].mac.hcf.edca.edcaf[3].contention state:vector ETV
attr interpolationmode none
attr source stateChanged
attr title "contention state, vector"
vector 125 Beacon.accessPoint[7].wlan[0].mac.dcf.channelAccess.contention state:vector ETV
attr interpolationmode none
attr source stateChanged
attr title "contention state, vector"
vector 126 Beacon.accessPoint[7].wlan[0].mac.hcf.edca.edcaf[0].contention state:vector ETV
attr interpolationmode none
attr source stateChanged
attr title "contention state, vector"
vector 127 Beacon.accessPoint[7].wlan[0].mac.hcf.edca.edcaf[1].contention state:vector ETV
attr interpolationmode none
attr source stateChanged
attr title "contention state, vector"
vector 128 Beacon.accessPoint[7].wlan[0].mac.hcf.edca.edcaf[2].contention state:vector ETV
attr interpolationmode none
attr source stateChanged
attr title "contention state, vector"
vector 129 Beacon.accessPoint[7].wlan[0].mac.hcf.edca.edcaf[3].contention state:vector ETV
attr interpolationmode none
attr source stateChanged
attr title "contention state, vector"
vector 130 Beacon.accessPoint[8].wlan[0].mac.dcf.channelAccess.contention state:vector ETV
attr interpolationmode none
attr source stateChanged
attr title "contention state, vector"
vector 131 Beacon.accessPoint[8].wlan[0].mac.hcf.edca.edcaf[0].contention state:vector ETV
attr interpolationmode none
attr source stateChanged
attr title "contention state, vector"
vector 132 Beacon.accessPoint[8].wlan[0].mac.hcf.edca.edcaf[1].contention state:vector ETV
attr interpolationmode none
attr source stateChanged
attr title "contention state, vector"
vector 133 Beacon.accessPoint[8].wlan[0].mac.hcf.edca.edcaf[2].contention state:vector ETV
attr interpolationmode none
attr source stateChanged
attr title "contention state, vector"
vector 134 Beacon.accessPoint[8].wlan[0].mac.hcf.edca.edcaf[3].contention state:vector ETV
attr interpolationmode none
attr source stateChanged
attr title "contention state, vector"
vector 135 Beacon.accessPoint[9].wlan[0].mac.dcf.channelAccess.contention state:vector ETV
attr interpolationmode none
attr source stateChanged
attr title "contention state, vector"
vector 136 Beacon.accessPoint[9].wlan[0].mac.hcf.edca.edcaf[0].contention state:vector ETV
attr interpolationmode none
attr source stateChanged
attr title "contention state, vector"
vector 137 Beacon.accessPoint[9].wlan[0].mac.hcf.edca.edcaf[1].contention state:vector ETV
attr interpolationmode none
attr source stateChanged
attr title "contention state, vector"
vector 138 Beacon.accessPoint[9].wlan[0].mac.hcf.edca.edcaf[2].contention state:vector ETV
attr interpolationmode none
attr source stateChanged
attr title "contention state, vector"
vector 139 Beacon.accessPoint[9].wlan[0].mac.hcf.edca.edcaf[3].contention state:vector ETV
attr interpolationmode none
attr source stateChanged
attr title "contention state, vector"
vector 140 Beacon.accessPoint[10].wlan[0].mac.dcf.channelAccess.contention state:vector ETV
attr interpolationmode none
attr source stateChanged
attr title "contention state, vector"
vector 141 Beacon.accessPoint[10].wlan[0].mac.hcf.edca.edcaf[0].contention state:vector ETV
attr interpolationmode none
attr source stateChanged
attr title "contention state, vector"
vector 142 Beacon.accessPoint[10].wlan[0].mac.hcf.edca.edcaf[1].contention state:vector ETV
attr interpolationmode none
attr source stateChanged
attr title "contention state, vector"
vector 143 Beacon.accessPoint[10].wlan[0].mac.hcf.edca.edcaf[2].contention state:vector ETV
attr interpolationmode none
attr source stateChanged
attr title "contention state, vector"
vector 144 Beacon.accessPoint[10].wlan[0].mac.hcf.edca.edcaf[3].contention state:vector ETV
attr interpolationmode none
attr source stateChanged
attr title "contention state, vector"
vector 145 Beacon.accessPoint[11].wlan[0].mac.dcf.channelAccess.contention state:vector ETV
attr interpolationmode none
attr source stateChanged
attr title "contention state, vector"
vector 146 Beacon.accessPoint[11].wlan[0].mac.hcf.edca.edcaf[0].contention state:vector ETV
attr interpolationmode none
attr source stateChanged
attr title "contention state, vector"
vector 147 Beacon.accessPoint[11].wlan[0].mac.hcf.edca.edcaf[1].contention state:vector ETV
attr interpolationmode none
attr source stateChanged
attr title "contention state, vector"
vector 148 Beacon.accessPoint[11].wlan[0].mac.hcf.edca.edcaf[2].contention state:vector ETV
attr interpolationmode none
attr source stateChanged
attr title "contention state, vector"
vector 149 Beacon.accessPoint[11].wlan[0].mac.hcf.edca.edcaf[3].contention state:vector ETV
attr interpolationmode none
attr source stateChanged
attr title "contention state, vector"
vector 150 Beacon.accessPoint[12].wlan[0].mac.dcf.channelAccess.contention state:vector ETV
attr interpolationmode none
attr source stateChanged
attr title "contention state, vector"
vector 151 Beacon.accessPoint[12].wlan[0].mac.hcf.edca.edcaf[0].contention state:vector ETV
attr interpolationmode none
attr source stateChanged
attr title "contention state, vector"
vector 152 Beacon.accessPoint[12].wlan[0].mac.hcf.edca.edcaf[1].contention state:vector ETV
attr interpolationmode none
attr source stateChanged
attr title "contention state, vector"
vector 153 Beacon.accessPoint[12].wlan[0].mac.hcf.edca.edcaf[2].contention state:vector ETV
attr interpolationmode none
attr source stateChanged
attr title "contention state, vector"
vector 154 Beacon.accessPoint[12].wlan[0].mac.hcf.edca.edcaf[3].contention state:vector ETV
attr interpolationmode none
attr source stateChanged
attr title "contention state, vector"
vector 155 Beacon.accessPoint[13].wlan[0].mac.dcf.channelAccess.contention state:vector ETV
attr interpolationmode none
attr source stateChanged
attr title "contention state, vector"
vector 156 Beacon.accessPoint[13].wlan[0].mac.hcf.edca.edcaf[0].contention state:vector ETV
attr interpolationmode none
attr source stateChanged
attr title "contention state, vector"
vector 157 Beacon.accessPoint[13].wlan[0].mac.hcf.edca.edcaf[1].contention state:vector ETV
attr interpolationmode none
attr source stateChanged
attr title "contention state, vector"
vector 158 Beacon.accessPoint[13].wlan[0].mac.hcf.edca.edcaf[2].contention state:vector ETV
attr interpolationmode none
attr source stateChanged
attr title "contention state, vector"
vector 159 Beacon.accessPoint[13].wlan[0].mac.hcf.edca.edcaf[3].contention state:vector ETV
attr interpolationmode none
attr source stateChanged
attr title "contention state, vector"
vector 160 Beacon.accessPoint[14].wlan[0].mac.dcf.channelAccess.contention state:vector ETV
attr interpolationmode none
attr source stateChanged
attr title "contention state, vector"
vector 161 Beacon.accessPoint[14].wlan[0].mac.hcf.edca.edcaf[0].contention state:vector ETV
attr interpolationmode none
attr source stateChanged
attr title "contention state, vector"
vector 162 Beacon.accessPoint[14].wlan[0].mac.hcf.edca.edcaf[1].contention state:vector ETV
attr interpolationmode none
attr source stateChanged
attr title "contention state, vector"
vector 163 Beacon.accessPoint[14].wlan[0].mac.hcf.edca.edcaf[2].contention state:vector ETV
attr interpolationmode none
attr source stateChanged
attr title "contention state, vector"
vector 164 Beacon.accessPoint[14].wlan[0].mac.hcf.edca.edcaf[3].contention state:vector ETV
attr interpolationmode none
attr source stateChanged
attr title "contention state, vector"
vector 165 Beacon.accessPoint[15].wlan[0].mac.dcf.channelAccess.contention state:vector ETV
attr interpolationmode none
attr source stateChanged
attr title "contention state, vector"
vector 166 Beacon.accessPoint[15].wlan[0].mac.hcf.edca.edcaf[0].contention state:vector ETV
attr interpolationmode none
attr source stateChanged
attr title "contention state, vector"
vector 167 Beacon.accessPoint[15].wlan[0].mac.hcf.edca.edcaf[1].contention state:vector ETV
attr interpolationmode none
attr source stateChanged
attr title "contention state, vector"
vector 168 Beacon.accessPoint[15].wlan[0].mac.hcf.edca.edcaf[2].contention state:vector ETV
attr interpolationmode none
attr source stateChanged
attr title "contention state, vector"
vector 169 Beacon.accessPoint[15].wlan[0].mac.hcf.edca.edcaf[3].contention state:vector ETV
attr interpolationmode none
attr source stateChanged
attr title "contention state, vector"
vector 170 Beacon.accessPoint[16].wlan[0].mac.dcf.channelAccess.contention state:vector ETV
attr interpolationmode none
attr source stateChanged
attr title "contention state, vector"
vector 171 Beacon.accessPoint[16].wlan[0].mac.hcf.edca.edcaf[0].contention state:vector ETV
attr interpolationmode none
attr source stateChanged
attr title "contention state, vector"
vector 172 Beacon.accessPoint[16].wlan[0].mac.hcf.edca.edcaf[1].contention state:vector ETV
attr interpolationmode none
attr source stateChanged
attr title "contention state, vector"
vector 173 Beacon.accessPoint[16].wlan[0].mac.hcf.edca.edcaf[2].contention state:vector ETV
attr interpolationmode none
attr source stateChanged
attr title "contention state, vector"
vector 174 Beacon.accessPoint[16].wlan[0].mac.hcf.edca.edcaf[3].contention state:vector ETV
attr interpolationmode none
attr source stateChanged
attr title "contention state, vector"
vector 175 Beacon.accessPoint[17].wlan[0].mac.dcf.channelAccess.contention state:vector ETV
attr interpolationmode none
attr source stateChanged
attr title "contention state, vector"
vector 176 Beacon.accessPoint[17].wlan[0].mac.hcf.edca.edcaf[0].contention state:vector ETV
attr interpolationmode none
attr source stateChanged
attr title "contention state, vector"
vector 177 Beacon.accessPoint[17].wlan[0].mac.hcf.edca.edcaf[1].contention state:vector ETV
attr interpolationmode none
attr source stateChanged
attr title "contention state, vector"
vector 178 Beacon.accessPoint[17].wlan[0].mac.hcf.edca.edcaf[2].contention state:vector ETV
attr interpolationmode none
attr source stateChanged
attr title "contention state, vector"
vector 179 Beacon.accessPoint[17].wlan[0].mac.hcf.edca.edcaf[3].contention state:vector ETV
attr interpolationmode none
attr source stateChanged
attr title "contention state, vector"
vector 180 Beacon.accessPoint[18].wlan[0].mac.dcf.channelAccess.contention state:vector ETV
attr interpolationmode none
attr source stateChanged
attr title "contention state, vector"
vector 181 Beacon.accessPoint[18].wlan[0].mac.hcf.edca.edcaf[0].contention state:vector ETV
attr interpolationmode none
attr source stateChanged
attr title "contention state, vector"
vector 182 Beacon.accessPoint[18].wlan[0].mac.hcf.edca.edcaf[1].contention state:vector ETV
attr interpolationmode none
attr source stateChanged
attr title "contention state, vector"
vector 183 Beacon.accessPoint[18].wlan[0].mac.hcf.edca.edcaf[2].contention state:vector ETV
attr interpolationmode none
attr source stateChanged
attr title "contention state, vector"
vector 184 Beacon.accessPoint[18].wlan[0].mac.hcf.edca.edcaf[3].contention state:vector ETV
attr interpolationmode none
attr source stateChanged
attr title "contention state, vector"
vector 185 Beacon.accessPoint[19].wlan[0].mac.dcf.channelAccess.contention state:vector ETV
attr interpolationmode none
attr source stateChanged
attr title "contention state, vector"
vector 186 Beacon.accessPoint[19].wlan[0].mac.hcf.edca.edcaf[0].contention state:vector ETV
attr interpolationmode none
attr source stateChanged
attr title "contention state, vector"
vector 187 Beacon.accessPoint[19].wlan[0].mac.hcf.edca.edcaf[1].contention state:vector ETV
attr interpolationmode none
attr source stateChanged
attr title "contention state, vector"
vector 188 Beacon.accessPoint[19].wlan[0].mac.hcf.edca.edcaf[2].contention state:vector ETV
attr interpolationmode none
attr source stateChanged
attr title "contention state, vector"
vector 189 Beacon.accessPoint[19].wlan[0].mac.hcf.edca.edcaf[3].contention state:vector ETV
attr interpolationmode none
attr source stateChanged
attr title "contention state, vector"
vector 190 Beacon.accessPoint[20].wlan[0].mac.dcf.channelAccess.contention state:vector ETV
attr interpolationmode none
attr source stateChanged
attr title "contention state, vector"
vector 191 Beacon.accessPoint[20].wlan[0].mac.hcf.edca.edcaf[0].contention state:vector ETV
attr interpolationmode none
attr source stateChanged
attr title "contention state, vector"
vector 192 Beacon.accessPoint[20].wlan[0].mac.hcf.edca.edcaf[1].contention state:vector ETV
attr interpolationmode none
attr source stateChanged
attr title "contention state, vector"
vector 193 Beacon.accessPoint[20].wlan[0].mac.hcf.edca.edcaf[2].contention state:vector ETV
attr interpolationmode none
attr source stateChanged
attr title "contention state, vector"
vector 194 Beacon.accessPoint[20].wlan[0].mac.hcf.edca.edcaf[3].contention state:vector ETV
attr interpolationmode none
attr source stateChanged
attr title "contention state, vector"
vector 195 Beacon.accessPoint[21].wlan[0].mac.dcf.channelAccess.contention state:vector ETV
attr interpolationmode none
attr source stateChanged
attr title "contention state, vector"
vector 196 Beacon.accessPoint[21].wlan[0].mac.hcf.edca.edcaf[0].contention state:vector ETV
attr interpolationmode none
attr source stateChanged
attr title "contention state, vector"
vector 197 Beacon.accessPoint[21].wlan[0].mac.hcf.edca.edcaf[1].contention state:vector ETV
attr interpolationmode none
attr source stateChanged
attr title "contention state, vector"
vector 198 Beacon.accessPoint[21].wlan[0].mac.hcf.edca.edcaf[2].contention state:vector ETV
attr interpolationmode none
attr source stateChanged
attr title "contention state, vector"
vector 199 Beacon.accessPoint[21].wlan[0].mac.hcf.edca.edcaf[3].contention state:vector ETV
attr interpolationmode none
attr source stateChanged
attr title "contention state, vector"
vector 200 Beacon.accessPoint[22].wlan[0].mac.dcf.channelAccess.contention state:vector ETV
attr interpolationmode none
attr source stateChanged
attr title "contention state, vector"
vector 201 Beacon.accessPoint[22].wlan[0].mac.hcf.edca.edcaf[0].contention state:vector ETV
attr interpolationmode none
attr source stateChanged
attr title "contention state, vector"
vector 202 Beacon.accessPoint[22].wlan[0].mac.hcf.edca.edcaf[1].contention state:vector ETV
attr interpolationmode none
attr source stateChanged
attr title "contention state, vector"
vector 203 Beacon.accessPoint[22].wlan[0].mac.hcf.edca.edcaf[2].contention state:vector ETV
attr interpolationmode none
attr source stateChanged
attr title "contention state, vector"
vector 204 Beacon.accessPoint[22].wlan[0].mac.hcf.edca.edcaf[3].contention state:vector ETV
attr interpolationmode none
attr source stateChanged
attr title "contention state, vector"
vector 205 Beacon.accessPoint[23].wlan[0].mac.dcf.channelAccess.contention state:vector ETV
attr interpolationmode none
attr source stateChanged
attr title "contention state, vector"
vector 206 Beacon.accessPoint[23].wlan[0].mac.hcf.edca.edcaf[0].contention state:vector ETV
attr interpolationmode none
attr source stateChanged
attr title "contention state, vector"
vector 207 Beacon.accessPoint[23].wlan[0].mac.hcf.edca.edcaf[1].contention state:vector ETV
attr interpolationmode none
attr source stateChanged
attr title "contention state, vector"
vector 208 Beacon.accessPoint[23].wlan[0].mac.hcf.edca.edcaf[2].contention state:vector ETV
attr interpolationmode none
attr source stateChanged
attr title "contention state, vector"
vector 209 Beacon.accessPoint[23].wlan[0].mac.hcf.edca.edcaf[3].contention state:vector ETV
attr interpolationmode none
attr source stateChanged
attr title "contention state, vector"
vector 210 Beacon.accessPoint[24].wlan[0].mac.dcf.channelAccess.contention state:vector ETV
attr interpolationmode none
attr source stateChanged
attr title "contention state, vector"
vector 211 Beacon.accessPoint[24].wlan[0].mac.hcf.edca.edcaf[0].contention state:vector ETV
attr interpolationmode none
attr source stateChanged
attr title "contention state, vector"
vector 212 Beacon.accessPoint[24].wlan[0].mac.hcf.edca.edcaf[1].contention state:vector ETV
attr interpolationmode none
attr source stateChanged
attr title "contention state, vector"
vector 213 Beacon.accessPoint[24].wlan[0].mac.hcf.edca.edcaf[2].contention state:vector ETV
attr interpolationmode none
attr source stateChanged
attr title "contention state, vector"
vector 214 Beacon.accessPoint[24].wlan[0].mac.hcf.edca.edcaf[3].contention state:vector ETV
attr interpolationmode none
attr source stateChanged
attr title "contention state, vector"
vector 215 Beacon.accessPoint[25].wlan[0].mac.dcf.channelAccess.contention state:vector ETV
attr interpolationmode none
attr source stateChanged
attr title "contention state, vector"
vector 216 Beacon.accessPoint[25].wlan[0].mac.hcf.edca.edcaf[0].contention state:vector ETV
attr interpolationmode none
attr source stateChanged
attr title "contention state, vector"
vector 217 Beacon.accessPoint[25].wlan[0].mac.hcf.edca.edcaf[1].contention state:vector ETV
attr interpolationmode none
attr source stateChanged
attr title "contention state, vector"
vector 218 Beacon.accessPoint[25].wlan[0].mac.hcf.edca.edcaf[2].contention state:vector ETV
attr interpolationmode none
attr source stateChanged
attr title "contention state, vector"
vector 219 Beacon.accessPoint[25].wlan[0].mac.hcf.edca.edcaf[3].contention state:vector ETV
attr interpolationmode none
attr source stateChanged
attr title "contention state, vector"
vector 220 Beacon.accessPoint[26].wlan[0].mac.dcf.channelAccess.contention state:vector ETV
attr interpolationmode none
attr source stateChanged
attr title "contention state, vector"
vector 221 Beacon.accessPoint[26].wlan[0].mac.hcf.edca.edcaf[0].contention state:vector ETV
attr interpolationmode none
attr source stateChanged
attr title "contention state, vector"
vector 222 Beacon.accessPoint[26].wlan[0].mac.hcf.edca.edcaf[1].contention state:vector ETV
attr interpolationmode none
attr source stateChanged
attr title "contention state, vector"
vector 223 Beacon.accessPoint[26].wlan[0].mac.hcf.edca.edcaf[2].contention state:vector ETV
attr interpolationmode none
attr source stateChanged
attr title "contention state, vector"
vector 224 Beacon.accessPoint[26].wlan[0].mac.hcf.edca.edcaf[3].contention state:vector ETV
attr interpolationmode none
attr source stateChanged
attr title "contention state, vector"
vector 225 Beacon.accessPoint[27].wlan[0].mac.dcf.channelAccess.contention state:vector ETV
attr interpolationmode none
attr source stateChanged
attr title "contention state, vector"
vector 226 Beacon.accessPoint[27].wlan[0].mac.hcf.edca.edcaf[0].contention state:vector ETV
attr interpolationmode none
attr source stateChanged
attr title "contention state, vector"
vector 227 Beacon.accessPoint[27].wlan[0].mac.hcf.edca.edcaf[1].contention state:vector ETV
attr interpolationmode none
attr source stateChanged
attr title "contention state, vector"
vector 228 Beacon.accessPoint[27].wlan[0].mac.hcf.edca.edcaf[2].contention state:vector ETV
attr interpolationmode none
attr source stateChanged
attr title "contention state, vector"
vector 229 Beacon.accessPoint[27].wlan[0].mac.hcf.edca.edcaf[3].contention state:vector ETV
attr interpolationmode none
attr source stateChanged
attr title "contention state, vector"
vector 230 Beacon.accessPoint[28].wlan[0].mac.dcf.channelAccess.contention state:vector ETV
attr interpolationmode none
attr source stateChanged
attr title "contention state, vector"
vector 231 Beacon.accessPoint[28].wlan[0].mac.hcf.edca.edcaf[0].contention state:vector ETV
attr interpolationmode none
attr source stateChanged
attr title "contention state, vector"
vector 232 Beacon.accessPoint[28].wlan[0].mac.hcf.edca.edcaf[1].contention state:vector ETV
attr interpolationmode none
attr source stateChanged
attr title "contention state, vector"
vector 233 Beacon.accessPoint[28].wlan[0].mac.hcf.edca.edcaf[2].contention state:vector ETV
attr interpolationmode none
attr source stateChanged
attr title "contention state, vector"
vector 234 Beacon.accessPoint[28].wlan[0].mac.hcf.edca.edcaf[3].contention state:vector ETV
attr interpolationmode none
attr source stateChanged
attr title "contention state, vector"
vector 235 Beacon.accessPoint[29].wlan[0].mac.dcf.channelAccess.contention state:vector ETV
attr interpolationmode none
attr source stateChanged
attr title "contention state, vector"
vector 236 Beacon.accessPoint[29].wlan[0].mac.hcf.edca.edcaf[0].contention state:vector ETV
attr interpolationmode none
attr source stateChanged
attr title "contention state, vector"
vector 237 Beacon.accessPoint[29].wlan[0].mac.hcf.edca.edcaf[1].contention state:vector ETV
attr interpolationmode none
attr source stateChanged
attr title "contention state, vector"
vector 238 Beacon.accessPoint[29].wlan[0].mac.hcf.edca.edcaf[2].contention state:vector ETV
attr interpolationmode none
attr source stateChanged
attr title "contention state, vector"
vector 239 Beacon.accessPoint[29].wlan[0].mac.hcf.edca.edcaf[3].contention state:vector ETV
attr interpolationmode none
attr source stateChanged
attr title "contention state, vector"
vector 240 Beacon.accessPoint[18].wlan[0].mac rcvdPkFromHL:vector(packetBytes) ETV
attr interpolationmode none
attr source packetReceivedFromUpper
attr title "packets received from higher layer, vector(packetBytes)"
vector 241 Beacon.accessPoint[18].wlan[0].mac sentDownPk:vector(packetBytes) ETV
attr interpolationmode none
attr source packetSentToLower
attr title "packets sent to lower layer, vector(packetBytes)"
vector 242 Beacon.accessPoint[18].wlan[0].radio transmissionState:vector ETV
attr interpolationmode sample-hold
attr source transmissionStateChanged
attr title "Radio transmission state, vector"
vector 243 Beacon.accessPoint[1].wlan[0].mac rcvdPkFromHL:vector(packetBytes) ETV
attr interpolationmode none
attr source packetReceivedFromUpper
attr title "packets received from higher layer, vector(packetBytes)"
vector 244 Beacon.accessPoint[5].wlan[0].mac rcvdPkFromLL:vector(packetBytes) ETV
attr interpolationmode none
attr source packetReceivedFromLower
attr title "packets received from lower layer, vector(packetBytes)"
vector 245 Beacon.accessPoint[5].wlan[0].mac passedUpPk:vector(packetBytes) ETV
attr interpolationmode none
attr source packetSentToUpper
attr title "packets passed to higher layer, vector(packetBytes)"
vector 246 Beacon.accessPoint[21].wlan[0].mac rcvdPkFromLL:vector(packetBytes) ETV
attr interpolationmode none
attr source packetReceivedFromLower
attr title "packets received from lower layer, vector(packetBytes)"
vector 247 Beacon.accessPoint[21].wlan[0].mac passedUpPk:vector(packetBytes) ETV
attr interpolationmode none
attr source packetSentToUpper
attr title "packets passed to higher layer, vector(packetBytes)"
vector 248 Beacon.accessPoint[14].wlan[0].mac rcvdPkFromLL:vector(packetBytes) ETV
attr interpolationmode none
attr source packetReceivedFromLower
attr title "packets received from lower layer, vector(packetBytes)"
vector 249 Beacon.accessPoint[14].wlan[0].mac passedUpPk:vector(packetBytes) ETV
attr interpolationmode none
attr source packetSentToUpper
attr title "packets passed to higher layer, vector(packetBytes)"
vector 250 Beacon.accessPoint[1].wlan[0].mac sentDownPk:vector(packetBytes) ETV
attr interpolationmode none
attr source packetSentToLower
attr title "packets sent to lower layer, vector(packetBytes)"
vector 251 Beacon.accessPoint[1].wlan[0].radio transmissionState:vector ETV
attr interpolationmode sample-hold
attr source transmissionStateChanged
attr title "Radio transmission state, vector"
vector 252 Beacon.accessPoint[9].wlan[0].mac rcvdPkFromLL:vector(packetBytes) ETV
attr interpolationmode none
attr source packetReceivedFromLower
attr title "packets received from lower layer, vector(packetBytes)"
vector 253 Beacon.accessPoint[9].wlan[0].mac passedUpPk:vector(packetBytes) ETV
attr interpolationmode none
attr source packetSentToUpper
attr title "packets passed to higher layer, vector(packetBytes)"
vector 254 Beacon.accessPoint[0].wlan[0].mac rcvdPkFromLL:vector(packetBytes) ETV
attr interpolationmode none
attr source packetReceivedFromLower
attr title "packets received from lower layer, vector(packetBytes)"
vector 255 Beacon.accessPoint[0].wlan[0].mac passedUpPk:vector(packetBytes) ETV
attr interpolationmode none
attr source packetSentToUpper
attr title "packets passed to higher layer, vector(packetBytes)"
vector 256 Beacon.accessPoint[14].wlan[0].mac rcvdPkFromHL:vector(packetBytes) ETV
attr interpolationmode none
attr source packetReceivedFromUpper
attr title "packets received from higher layer, vector(packetBytes)"
vector 257 Beacon.accessPoint[14].wlan[0].mac sentDownPk:vector(packetBytes) ETV
attr interpolationmode none
attr source packetSentToLower
attr title "packets sent to lower layer, vector(packetBytes)"
vector 258 Beacon.accessPoint[14].wlan[0].radio transmissionState:vector ETV
attr interpolationmode sample-hold
attr source transmissionStateChanged
attr title "Radio transmission state, vector"
vector 259 Beacon.accessPoint[18].wlan[0].mac rcvdPkFromLL:vector(packetBytes) ETV
attr interpolationmode none
attr source packetReceivedFromLower
attr title "packets received from lower layer, vector(packetBytes)"
vector 260 Beacon.accessPoint[18].wlan[0].mac passedUpPk:vector(packetBytes) ETV
attr interpolationmode none
attr source packetSentToUpper
attr title "packets passed to higher layer, vector(packetBytes)"
vector 261 Beacon.accessPoint[23].wlan[0].mac rcvdPkFromLL:vector(packetBytes) ETV
attr interpolationmode none
attr source packetReceivedFromLower
attr title "packets received from lower layer, vector(packetBytes)"
vector 262 Beacon.accessPoint[23].wlan[0].mac passedUpPk:vector(packetBytes) ETV
attr interpolationmode none
attr source packetSentToUpper
attr title "packets passed to higher layer, vector(packetBytes)"
vector 263 Beacon.accessPoint[4].wlan[0].mac rcvdPkFromHL:vector(packetBytes) ETV
attr interpolationmode none
attr source packetReceivedFromUpper
attr title "packets received from higher layer, vector(packetBytes)"
vector 264 Beacon.accessPoint[4].wlan[0].mac sentDownPk:vector(packetBytes) ETV
attr interpolationmode none
attr source packetSentToLower
attr title "packets sent to lower layer, vector(packetBytes)"
vector 265 Beacon.accessPoint[4].wlan[0].radio transmissionState:vector ETV
attr interpolationmode sample-hold
attr source transmissionStateChanged
attr title "Radio transmission state, vector"
vector 266 Beacon.accessPoint[19].wlan[0].mac rcvdPkFromLL:vector(packetBytes) ETV
attr interpolationmode none
attr source packetReceivedFromLower
attr title "packets received from lower layer, vector(packetBytes)"
vector 267 Beacon.accessPoint[19].wlan[0].mac passedUpPk:vector(packetBytes) ETV
attr interpolationmode none
attr source packetSentToUpper
attr title "packets passed to higher layer, vector(packetBytes)"
vector 268 Beacon.accessPoint[2].wlan[0].mac rcvdPkFromLL:vector(packetBytes) ETV
attr interpolationmode none
attr source packetReceivedFromLower
attr title "packets received from lower layer, vector(packetBytes)"
vector 269 Beacon.accessPoint[2].wlan[0].mac passedUpPk:vector(packetBytes) ETV
attr interpolationmode none
attr source packetSentToUpper
attr title "packets passed to higher layer, vector(packetBytes)"
vector 270 Beacon.accessPoint[22].wlan[0].mac rcvdPkFromLL:vector(packetBytes) ETV
attr interpolationmode none
attr source packetReceivedFromLower
attr title "packets received from lower layer, vector(packetBytes)"
vector 271 Beacon.accessPoint[22].wlan[0].mac passedUpPk:vector(packetBytes) ETV
attr interpolationmode none
attr source packetSentToUpper
attr title "packets passed to higher layer, vector(packetBytes)"
vector 272 Beacon.accessPoint[25].wlan[0].mac rcvdPkFromLL:vector(packetBytes) ETV
attr interpolationmode none
attr source packetReceivedFromLower
attr title "packets received from lower layer, vector(packetBytes)"
vector 273 Beacon.accessPoint[25].wlan[0].mac passedUpPk:vector(packetBytes) ETV
attr interpolationmode none
attr source packetSentToUpper
attr title "packets passed to higher layer, vector(packetBytes)"
vector 274 Beacon.accessPoint[26].wlan[0].mac rcvdPkFromLL:vector(packetBytes) ETV
attr interpolationmode none
attr source packetReceivedFromLower
attr title "packets received from lower layer, vector(packetBytes)"
vector 275 Beacon.accessPoint[26].wlan[0].mac passedUpPk:vector(packetBytes) ETV
attr interpolationmode none
attr source packetSentToUpper
attr title "packets passed to higher layer, vector(packetBytes)"
vector 276 Beacon.accessPoint[15].wlan[0].mac rcvdPkFromLL:vector(packetBytes) ETV
attr interpolationmode none
attr source packetReceivedFromLower
attr title "packets received from lower layer, vector(packetBytes)"
vector 277 Beacon.accessPoint[15].wlan[0].mac passedUpPk:vector(packetBytes) ETV
attr interpolationmode none
attr source packetSentToUpper
attr title "packets passed to higher layer, vector(packetBytes)"
vector 278 Beacon.accessPoint[24].wlan[0].mac rcvdPkFromLL:vector(packetBytes) ETV
attr interpolationmode none
attr source packetReceivedFromLower
attr title "packets received from lower layer, vector(packetBytes)"
vector 279 Beacon.accessPoint[24].wlan[0].mac passedUpPk:vector(packetBytes) ETV
attr interpolationmode none
attr source packetSentToUpper
attr title "packets passed to higher layer, vector(packetBytes)"
vector 280 Beacon.accessPoint[8].wlan[0].mac rcvdPkFromLL:vector(packetBytes) ETV
attr interpolationmode none
attr source packetReceivedFromLower
attr title "packets received from lower layer, vector(packetBytes)"
vector 281 Beacon.accessPoint[8].wlan[0].mac passedUpPk:vector(packetBytes) ETV
attr interpolationmode none
attr source packetSentToUpper
attr title "packets passed to higher layer, vector(packetBytes)"
vector 282 Beacon.accessPoint[29].wlan[0].mac rcvdPkFromLL:vector(packetBytes) ETV
attr interpolationmode none
attr source packetReceivedFromLower
attr title "packets received from lower layer, vector(packetBytes)"
vector 283 Beacon.accessPoint[29].wlan[0].mac passedUpPk:vector(packetBytes) ETV
attr interpolationmode none
attr source packetSentToUpper
attr title "packets passed to higher layer, vector(packetBytes)"
vector 284 Beacon.accessPoint[19].wlan[0].mac rcvdPkFromHL:vector(packetBytes) ETV
attr interpolationmode none
attr source packetReceivedFromUpper
attr title "packets received from higher layer, vector(packetBytes)"
vector 285 Beacon.accessPoint[19].wlan[0].mac sentDownPk:vector(packetBytes) ETV
attr interpolationmode none
attr source packetSentToLower
attr title "packets sent to lower layer, vector(packetBytes)"
vector 286 Beacon.accessPoint[19].wlan[0].radio transmissionState:vector ETV
attr interpolationmode sample-hold
attr source transmissionStateChanged
attr title "Radio transmission state, vector"
vector 287 Beacon.accessPoint[4].wlan[0].mac rcvdPkFromLL:vector(packetBytes) ETV
attr interpolationmode none
attr source packetReceivedFromLower
attr title "packets received from lower layer, vector(packetBytes)"
vector 288 Beacon.accessPoint[4].wlan[0].mac passedUpPk:vector(packetBytes) ETV
attr interpolationmode none
attr source packetSentToUpper
attr title "packets passed to higher layer, vector(packetBytes)"
vector 289 Beacon.accessPoint[3].wlan[0].mac rcvdPkFromLL:vector(packetBytes) ETV
attr interpolationmode none
attr source packetReceivedFromLower
attr title "packets received from lower layer, vector(packetBytes)"
vector 290 Beacon.accessPoint[3].wlan[0].mac passedUpPk:vector(packetBytes) ETV
attr interpolationmode none
attr source packetSentToUpper
attr title "packets passed to higher layer, vector(packetBytes)"
vector 291 Beacon.accessPoint[27].wlan[0].mac rcvdPkFromLL:vector(packetBytes) ETV
attr interpolationmode none
attr source packetReceivedFromLower
attr title "packets received from lower layer, vector(packetBytes)"
vector 292 Beacon.accessPoint[27].wlan[0].mac passedUpPk:vector(packetBytes) ETV
attr interpolationmode none
attr source packetSentToUpper
attr title "packets passed to higher layer, vector(packetBytes)"
vector 293 Beacon.accessPoint[15].wlan[0].mac rcvdPkFromHL:vector(packetBytes) ETV
attr interpolationmode none
attr source packetReceivedFromUpper
attr title "packets received from higher layer, vector(packetBytes)"
vector 294 Beacon.accessPoint[15].wlan[0].mac sentDownPk:vector(packetBytes) ETV
attr interpolationmode none
attr source packetSentToLower
attr title "packets sent to lower layer, vector(packetBytes)"
vector 295 Beacon.accessPoint[15].wlan[0].radio transmissionState:vector ETV
attr interpolationmode sample-hold
attr source transmissionStateChanged
attr title "Radio transmission state, vector"
vector 296 Beacon.accessPoint[11].wlan[0].mac rcvdPkFromLL:vector(packetBytes) ETV
attr interpolationmode none
attr source packetReceivedFromLower
attr title "packets received from lower layer, vector(packetBytes)"
vector 297 Beacon.accessPoint[11].wlan[0].mac passedUpPk:vector(packetBytes) ETV
attr interpolationmode none
attr source packetSentToUpper
attr title "packets passed to higher layer, vector(packetBytes)"
vector 298 Beacon.accessPoint[10].wlan[0].mac rcvdPkFromHL:vector(packetBytes) ETV
attr interpolationmode none
attr source packetReceivedFromUpper
attr title "packets received from higher layer, vector(packetBytes)"
vector 299 Beacon.accessPoint[10].wlan[0].mac sentDownPk:vector(packetBytes) ETV
attr interpolationmode none
attr source packetSentToLower
attr title "packets sent to lower layer, vector(packetBytes)"
vector 300 Beacon.accessPoint[10].wlan[0].radio transmissionState:vector ETV
attr interpolationmode sample-hold
attr source transmissionStateChanged
attr title "Radio transmission state, vector"
vector 301 Beacon.accessPoint[28].wlan[0].mac rcvdPkFromHL:vector(packetBytes) ETV
attr interpolationmode none
attr source packetReceivedFromUpper
attr title "packets received from higher layer, vector(packetBytes)"
vector 302 Beacon.accessPoint[28].wlan[0].mac sentDownPk:vector(packetBytes) ETV
attr interpolationmode none
attr source packetSentToLower
attr title "packets sent to lower layer, vector(packetBytes)"
vector 303 Beacon.accessPoint[28].wlan[0].radio transmissionState:vector ETV
attr interpolationmode sample-hold
attr source transmissionStateChanged
attr title "Radio transmission state, vector"
vector 304 Beacon.accessPoint[16].wlan[0].mac rcvdPkFromLL:vector(packetBytes) ETV
attr interpolationmode none
attr source packetReceivedFromLower
attr title "packets received from lower layer, vector(packetBytes)"
vector 305 Beacon.accessPoint[16].wlan[0].mac passedUpPk:vector(packetBytes) ETV
attr interpolationmode none
attr source packetSentToUpper
attr title "packets passed to higher layer, vector(packetBytes)"
vector 306 Beacon.accessPoint[12].wlan[0].mac rcvdPkFromLL:vector(packetBytes) ETV
attr interpolationmode none
attr source packetReceivedFromLower
attr title "packets received from lower layer, vector(packetBytes)"
vector 307 Beacon.accessPoint[12].wlan[0].mac passedUpPk:vector(packetBytes) ETV
attr interpolationmode none
attr source packetSentToUpper
attr title "packets passed to higher layer, vector(packetBytes)"
vector 308 Beacon.accessPoint[6].wlan[0].mac rcvdPkFromLL:vector(packetBytes) ETV
attr interpolationmode none
attr source packetReceivedFromLower
attr title "packets received from lower layer, vector(packetBytes)"
vector 309 Beacon.accessPoint[6].wlan[0].mac passedUpPk:vector(packetBytes) ETV
attr interpolationmode none
attr source packetSentToUpper
attr title "packets passed to higher layer, vector(packetBytes)"
vector 310 Beacon.accessPoint[9].wlan[0].mac rcvdPkFromHL:vector(packetBytes) ETV
attr interpolationmode none
attr source packetReceivedFromUpper
attr title "packets received from higher layer, vector(packetBytes)"
vector 311 Beacon.accessPoint[9].wlan[0].mac sentDownPk:vector(packetBytes) ETV
attr interpolationmode none
attr source packetSentToLower
attr title "packets sent to lower layer, vector(packetBytes)"
vector 312 Beacon.accessPoint[9].wlan[0].radio transmissionState:vector ETV
attr interpolationmode sample-hold
attr source transmissionStateChanged
attr title "Radio transmission state, vector"
vector 313 Beacon.accessPoint[1].wlan[0].mac rcvdPkFromLL:vector(packetBytes) ETV
attr interpolationmode none
attr source packetReceivedFromLower
attr title "packets received from lower layer, vector(packetBytes)"
vector 314 Beacon.accessPoint[1].wlan[0].mac passedUpPk:vector(packetBytes) ETV
attr interpolationmode none
attr source packetSentToUpper
attr title "packets passed to higher layer, vector(packetBytes)"
vector 315 Beacon.accessPoint[22].wlan[0].mac rcvdPkFromHL:vector(packetBytes) ETV
attr interpolationmode none
attr source packetReceivedFromUpper
attr title "packets received from higher layer, vector(packetBytes)"
vector 316 Beacon.accessPoint[22].wlan[0].mac sentDownPk:vector(packetBytes) ETV
attr interpolationmode none
attr source packetSentToLower
attr title "packets sent to lower layer, vector(packetBytes)"
vector 317 Beacon.accessPoint[22].wlan[0].radio transmissionState:vector ETV
attr interpolationmode sample-hold
attr source transmissionStateChanged
attr title "Radio transmission state, vector"
vector 318 Beacon.accessPoint[20].wlan[0].mac rcvdPkFromLL:vector(packetBytes) ETV
attr interpolationmode none
attr source packetReceivedFromLower
attr title "packets received from lower layer, vector(packetBytes)"
vector 319 Beacon.accessPoint[20].wlan[0].mac passedUpPk:vector(packetBytes) ETV
attr interpolationmode none
attr source packetSentToUpper
attr title "packets passed to higher layer, vector(packetBytes)"
vector 320 Beacon.accessPoint[25].wlan[0].mac rcvdPkFromHL:vector(packetBytes) ETV
attr interpolationmode none
attr source packetReceivedFromUpper
attr title "packets received from higher layer, vector(packetBytes)"
vector 321 Beacon.accessPoint[25].wlan[0].mac sentDownPk:vector(packetBytes) ETV
attr interpolationmode none
attr source packetSentToLower
attr title "packets sent to lower layer, vector(packetBytes)"
vector 322 Beacon.accessPoint[25].wlan[0].radio transmissionState:vector ETV
attr interpolationmode sample-hold
attr source transmissionStateChanged
attr title "Radio transmission state, vector"
vector 323 Beacon.accessPoint[8].wlan[0].mac rcvdPkFromHL:vector(packetBytes) ETV
attr interpolationmode none
attr source packetReceivedFromUpper
attr title "packets received from higher layer, vector(packetBytes)"
vector 324 Beacon.accessPoint[8].wlan[0].mac sentDownPk:vector(packetBytes) ETV
attr interpolationmode none
attr source packetSentToLower
attr title "packets sent to lower layer, vector(packetBytes)"
vector 325 Beacon.accessPoint[8].wlan[0].radio transmissionState:vector ETV
attr interpolationmode sample-hold
attr source transmissionStateChanged
attr title "Radio transmission state, vector"
vector 326 Beacon.accessPoint[10].wlan[0].mac rcvdPkFromLL:vector(packetBytes) ETV
attr interpolationmode none
attr source packetReceivedFromLower
attr title "packets received from lower layer, vector(packetBytes)"
vector 327 Beacon.accessPoint[10].wlan[0].mac passedUpPk:vector(packetBytes) ETV
attr interpolationmode none
attr source packetSentToUpper
attr title "packets passed to higher layer, vector(packetBytes)"
vector 328 Beacon.accessPoint[0].wlan[0].mac rcvdPkFromHL:vector(packetBytes) ETV
attr interpolationmode none
attr source packetReceivedFromUpper
attr title "packets received from higher layer, vector(packetBytes)"
vector 329 Beacon.accessPoint[0].wlan[0].mac sentDownPk:vector(packetBytes) ETV
attr interpolationmode none
attr source packetSentToLower
attr title "packets sent to lower layer, vector(packetBytes)"
vector 330 Beacon.accessPoint[0].wlan[0].radio transmissionState:vector ETV
attr interpolationmode sample-hold
attr source transmissionStateChanged
attr title "Radio transmission state, vector"
vector 331 Beacon.accessPoint[17].wlan[0].mac rcvdPkFromHL:vector(packetBytes) ETV
attr interpolationmode none
attr source packetReceivedFromUpper
attr title "packets received from higher layer, vector(packetBytes)"
vector 332 Beacon.accessPoint[17].wlan[0].mac sentDownPk:vector(packetBytes) ETV
attr interpolationmode none
attr source packetSentToLower
attr title "packets sent to lower layer, vector(packetBytes)"
vector 333 Beacon.accessPoint[17].wlan[0].radio transmissionState:vector ETV
attr interpolationmode sample-hold
attr source transmissionStateChanged
attr title "Radio transmission state, vector"
vector 334 Beacon.accessPoint[13].wlan[0].mac rcvdPkFromLL:vector(packetBytes) ETV
attr interpolationmode none
attr source packetReceivedFromLower
attr title "packets received from lower layer, vector(packetBytes)"
vector 335 Beacon.accessPoint[13].wlan[0].mac passedUpPk:vector(packetBytes) ETV
attr interpolationmode none
attr source packetSentToUpper
attr title "packets passed to higher layer, vector(packetBytes)"
vector 336 Beacon.accessPoint[7].wlan[0].mac rcvdPkFromLL:vector(packetBytes) ETV
attr interpolationmode none
attr source packetReceivedFromLower
attr title "packets received from lower layer, vector(packetBytes)"
vector 337 Beacon.accessPoint[7].wlan[0].mac passedUpPk:vector(packetBytes) ETV
attr interpolationmode none
attr source packetSentToUpper
attr title "packets passed to higher layer, vector(packetBytes)"
vector 338 Beacon.accessPoint[11].wlan[0].mac rcvdPkFromHL:vector(packetBytes) ETV
attr interpolationmode none
attr source packetReceivedFromUpper
attr title "packets received from higher layer, vector(packetBytes)"
vector 339 Beacon.accessPoint[11].wlan[0].mac sentDownPk:vector(packetBytes) ETV
attr interpolationmode none
attr source packetSentToLower
attr title "packets sent to lower layer, vector(packetBytes)"
vector 340 Beacon.accessPoint[11].wlan[0].radio transmissionState:vector ETV
attr interpolationmode sample-hold
attr source transmissionStateChanged
attr title "Radio transmission state, vector"
vector 341 Beacon.accessPoint[17].wlan[0].mac rcvdPkFromLL:vector(packetBytes) ETV
attr interpolationmode none
attr source packetReceivedFromLower
attr title "packets received from lower layer, vector(packetBytes)"
vector 342 Beacon.accessPoint[17].wlan[0].mac passedUpPk:vector(packetBytes) ETV
attr interpolationmode none
attr source packetSentToUpper
attr title "packets passed to higher layer, vector(packetBytes)"
vector 343 Beacon.accessPoint[27].wlan[0].mac rcvdPkFromHL:vector(packetBytes) ETV
attr interpolationmode none
attr source packetReceivedFromUpper
attr title "packets received from higher layer, vector(packetBytes)"
vector 344 Beacon.accessPoint[27].wlan[0].mac sentDownPk:vector(packetBytes) ETV
attr interpolationmode none
attr source packetSentToLower
attr title "packets sent to lower layer, vector(packetBytes)"
vector 345 Beacon.accessPoint[27].wlan[0].radio transmissionState:vector ETV
attr interpolationmode sample-hold
attr source transmissionStateChanged
attr title "Radio transmission state, vector"
vector 346 Beacon.accessPoint[13].wlan[0].mac rcvdPkFromHL:vector(packetBytes) ETV
attr interpolationmode none
attr source packetReceivedFromUpper
attr title "packets received from higher layer, vector(packetBytes)"
vector 347 Beacon.accessPoint[13].wlan[0].mac sentDownPk:vector(packetBytes) ETV
attr interpolationmode none
attr source packetSentToLower
attr title "packets sent to lower layer, vector(packetBytes)"
vector 348 Beacon.accessPoint[13].wlan[0].radio transmissionState:vector ETV
attr interpolationmode sample-hold
attr source transmissionStateChanged
attr title "Radio transmission state, vector"
vector 349 Beacon.accessPoint[21].wlan[0].mac rcvdPkFromHL:vector(packetBytes) ETV
attr interpolationmode none
attr source packetReceivedFromUpper
attr title "packets received from higher layer, vector(packetBytes)"
vector 350 Beacon.accessPoint[21].wlan[0].mac sentDownPk:vector(packetBytes) ETV
attr interpolationmode none
attr source packetSentToLower
attr title "packets sent to lower layer, vector(packetBytes)"
vector 351 Beacon.accessPoint[21].wlan[0].radio transmissionState:vector ETV
attr interpolationmode sample-hold
attr source transmissionStateChanged
attr title "Radio transmission state, vector"
vector 352 Beacon.accessPoint[12].wlan[0].mac rcvdPkFromHL:vector(packetBytes) ETV
attr interpolationmode none
attr source packetReceivedFromUpper
attr title "packets received from higher layer, vector(packetBytes)"
vector 353 Beacon.accessPoint[12].wlan[0].mac sentDownPk:vector(packetBytes) ETV
attr interpolationmode none
attr source packetSentToLower
attr title "packets sent to lower layer, vector(packetBytes)"
vector 354 Beacon.accessPoint[12].wlan[0].radio transmissionState:vector ETV
attr interpolationmode sample-hold
attr source transmissionStateChanged
attr title "Radio transmission state, vector"
vector 355 Beacon.accessPoint[28].wlan[0].mac rcvdPkFromLL:vector(packetBytes) ETV
attr interpolationmode none
attr source packetReceivedFromLower
attr title "packets received from lower layer, vector(packetBytes)"
vector 356 Beacon.accessPoint[28].wlan[0].mac passedUpPk:vector(packetBytes) ETV
attr interpolationmode none
attr source packetSentToUpper
attr title "packets passed to higher layer, vector(packetBytes)"
vector 357 Beacon.accessPoint[5].wlan[0].mac rcvdPkFromHL:vector(packetBytes) ETV
attr interpolationmode none
attr source packetReceivedFromUpper
attr title "packets received from higher layer, vector(packetBytes)"
vector 358 Beacon.accessPoint[5].wlan[0].mac sentDownPk:vector(packetBytes) ETV
attr interpolationmode none
attr source packetSentToLower
attr title "packets sent to lower layer, vector(packetBytes)"
vector 359 Beacon.accessPoint[5].wlan[0].radio transmissionState:vector ETV
attr interpolationmode sample-hold
attr source transmissionStateChanged
attr title "Radio transmission state, vector"
vector 360 Beacon.accessPoint[2].wlan[0].mac rcvdPkFromHL:vector(packetBytes) ETV
attr interpolationmode none
attr source packetReceivedFromUpper
attr title "packets received from higher layer, vector(packetBytes)"
vector 361 Beacon.accessPoint[2].wlan[0].mac sentDownPk:vector(packetBytes) ETV
attr interpolationmode none
attr source packetSentToLower
attr title "packets sent to lower layer, vector(packetBytes)"
vector 362 Beacon.accessPoint[2].wlan[0].radio transmissionState:vector ETV
attr interpolationmode sample-hold
attr source transmissionStateChanged
attr title "Radio transmission state, vector"
vector 363 Beacon.accessPoint[20].wlan[0].mac rcvdPkFromHL:vector(packetBytes) ETV
attr interpolationmode none
attr source packetReceivedFromUpper
attr title "packets received from higher layer, vector(packetBytes)"
vector 364 Beacon.accessPoint[20].wlan[0].mac sentDownPk:vector(packetBytes) ETV
attr interpolationmode none
attr source packetSentToLower
attr title "packets sent to lower layer, vector(packetBytes)"
vector 365 Beacon.accessPoint[20].wlan[0].radio transmissionState:vector ETV
attr interpolationmode sample-hold
attr source transmissionStateChanged
attr title "Radio transmission state, vector"
vector 366 Beacon.accessPoint[23].wlan[0].mac rcvdPkFromHL:vector(packetBytes) ETV
attr interpolationmode none
attr source packetReceivedFromUpper
attr title "packets received from higher layer, vector(packetBytes)"
vector 367 Beacon.accessPoint[23].wlan[0].mac sentDownPk:vector(packetBytes) ETV
attr interpolationmode none
attr source packetSentToLower
attr title "packets sent to lower layer, vector(packetBytes)"
vector 368 Beacon.accessPoint[23].wlan[0].radio transmissionState:vector ETV
attr interpolationmode sample-hold
attr source transmissionStateChanged
attr title "Radio transmission state, vector"
vector 369 Beacon.accessPoint[6].wlan[0].mac rcvdPkFromHL:vector(packetBytes) ETV
attr interpolationmode none
attr source packetReceivedFromUpper
attr title "packets received from higher layer, vector(packetBytes)"
vector 370 Beacon.accessPoint[6].wlan[0].mac sentDownPk:vector(packetBytes) ETV
attr interpolationmode none
attr source packetSentToLower
attr title "packets sent to lower layer, vector(packetBytes)"
vector 371 Beacon.accessPoint[6].wlan[0].radio transmissionState:vector ETV
attr interpolationmode sample-hold
attr source transmissionStateChanged
attr title "Radio transmission state, vector"
vector 372 Beacon.accessPoint[24].wlan[0].mac rcvdPkFromHL:vector(packetBytes) ETV
attr interpolationmode none
attr source packetReceivedFromUpper
attr title "packets received from higher layer, vector(packetBytes)"
vector 373 Beacon.accessPoint[24].wlan[0].mac sentDownPk:vector(packetBytes) ETV
attr interpolationmode none
attr source packetSentToLower
attr title "packets sent to lower layer, vector(packetBytes)"
vector 374 Beacon.accessPoint[24].wlan[0].radio transmissionState:vector ETV
attr interpolationmode sample-hold
attr source transmissionStateChanged
attr title "Radio transmission state, vector"
vector 375 Beacon.accessPoint[29].wlan[0].mac rcvdPkFromHL:vector(packetBytes) ETV
attr interpolationmode none
attr source packetReceivedFromUpper
attr title "packets received from higher layer, vector(packetBytes)"
vector 376 Beacon.accessPoint[29].wlan[0].mac sentDownPk:vector(packetBytes) ETV
attr interpolationmode none
attr source packetSentToLower
attr title "packets sent to lower layer, vector(packetBytes)"
vector 377 Beacon.accessPoint[29].wlan[0].radio transmissionState:vector ETV
attr interpolationmode sample-hold
attr source transmissionStateChanged
attr title "Radio transmission state, vector"
vector 378 Beacon.accessPoint[16].wlan[0].mac rcvdPkFromHL:vector(packetBytes) ETV
attr interpolationmode none
attr source packetReceivedFromUpper
attr title "packets received from higher layer, vector(packetBytes)"
vector 379 Beacon.accessPoint[16].wlan[0].mac sentDownPk:vector(packetBytes) ETV
attr interpolationmode none
attr source packetSentToLower
attr title "packets sent to lower layer, vector(packetBytes)"
vector 380 Beacon.accessPoint[16].wlan[0].radio transmissionState:vector ETV
attr interpolationmode sample-hold
attr source transmissionStateChanged
attr title "Radio transmission state, vector"
vector 381 Beacon.accessPoint[7].wlan[0].mac rcvdPkFromHL:vector(packetBytes) ETV
attr interpolationmode none
attr source packetReceivedFromUpper
attr title "packets received from higher layer, vector(packetBytes)"
vector 382 Beacon.accessPoint[7].wlan[0].mac sentDownPk:vector(packetBytes) ETV
attr interpolationmode none
attr source packetSentToLower
attr title "packets sent to lower layer, vector(packetBytes)"
vector 383 Beacon.accessPoint[7].wlan[0].radio transmissionState:vector ETV
attr interpolationmode sample-hold
attr source transmissionStateChanged
attr title "Radio transmission state, vector"
vector 384 Beacon.accessPoint[3].wlan[0].mac rcvdPkFromHL:vector(packetBytes) ETV
attr interpolationmode none
attr source packetReceivedFromUpper
attr title "packets received from higher layer, vector(packetBytes)"
vector 385 Beacon.accessPoint[3].wlan[0].mac sentDownPk:vector(packetBytes) ETV
attr interpolationmode none
attr source packetSentToLower
attr title "packets sent to lower layer, vector(packetBytes)"
vector 386 Beacon.accessPoint[3].wlan[0].radio transmissionState:vector ETV
attr interpolationmode sample-hold
attr source transmissionStateChanged
attr title "Radio transmission state, vector"
vector 387 Beacon.accessPoint[26].wlan[0].mac rcvdPkFromHL:vector(packetBytes) ETV
attr interpolationmode none
attr source packetReceivedFromUpper
attr title "packets received from higher layer, vector(packetBytes)"
vector 388 Beacon.accessPoint[26].wlan[0].mac sentDownPk:vector(packetBytes) ETV
attr interpolationmode none
attr source packetSentToLower
attr title "packets sent to lower layer, vector(packetBytes)"
vector 389 Beacon.accessPoint[26].wlan[0].radio transmissionState:vector ETV
attr interpolationmode sample-hold
attr source transmissionStateChanged
attr title "Radio transmission state, vector"
0	77678 3214 0 137943 0 3.015974447747 124 0 3 307 797
1	80892 9 0 0 0 0 1 0 0 0 0
2	80901 3252 0 139395 0 3.050513835087 126 0 3 312 810
3	84153 9 0 0 0 0 1 0 0 0 0
4	84162 3216 0 138550 0 3.033416518812 124 0 3 307 797
5	87378 9 0 0 0 0 1 0 0 0 0
6	87387 3218 0 139149 0 3.042163103958 124 0 3 307 797
7	90605 9 0 0 0 0 1 0 0 0 0
8	90614 3018 0 139538 0 3.0566358931 126 0 3 312 810
9	93632 9 0 0 0 0 1 0 0 0 0
10	93641 3340 0 138477 0 3.032404706929 124 0 3 307 797
11	96981 10 0 0 0 0 1 0 0 0 0
12	96991 3340 0 138787 0 3.035862359892 124 0 3 307 797
13	100331 10 0 0 0 0 1 0 0 0 0
14	100341 3342 0 139080 0 3.042115306108 124 0 3 307 797
15	103683 10 0 0 0 0 1 0 0 0 0
16	103693 3336 0 137868 0 3.014516304549 124 0 3 307 797
17	107029 10 0 0 0 0 1 0 0 0 0
18	107039 3336 0 137641 0 3.013282508216 124 0 3 307 797
19	110375 10 0 0 0 0 1 0 0 0 0
20	110385 3336 0 137488 0 3.009205568173 124 0 3 307 797
21	113721 10 0 0 0 0 1 0 0 0 0
22	113731 3340 0 138091 0 3.019937037582 124 0 3 307 797
23	117071 10 0 0 0 0 1 0 0 0 0
24	117081 3340 0 138398 0 3.029371646651 124 0 3 307 797
25	120421 10 0 0 0 0 1 0 0 0 0
26	120431 3340 0 138253 0 3.027687074208 124 0 3 307 797
27	123771 10 0 0 0 0 1 0 0 0 0
28	123781 3392 0 139464 0 3.051051377527 126 0 3 312 810
29	127173 10 0 0 0 0 1 0 0 0 0
30	127183 3336 0 137415 0 3.008293023029 124 0 3 307 797
31	130519 10 0 0 0 0 1 0 0 0 0
32	130529 3342 0 139009 0 3.041493001416 124 0 3 307 797
33	133871 10 0 0 0 0 1 0 0 0 0
34	133881 3340 0 138019 0 3.018536404787 124 0 3 307 797
35	137221 10 0 0 0 0 1 0 0 0 0
36	137231 3376 0 139320 0 3.050280774104 126 0 3 312 810
37	140607 10 0 0 0 0 1 0 0 0 0
38	140617 3392 0 139619 0 3.057368088163 126 0 3 312 810
39	144009 10 0 0 0 0 1 0 0 0 0
40	144019 3334 0 138635 0 3.033936826965 124 0 3 307 797
41	147353 10 0 0 0 0 1 0 0 0 0
42	147363 3340 0 138324 0 3.028526920219 124 0 3 307 797
43	150703 10 0 0 0 0 1 0 0 0 0
44	150713 3336 0 137714 0 3.013739496601 124 0 3 307 797
45	154049 10 0 0 0 0 1 0 0 0 0
46	154059 3218 0 138710 0 3.03523286404 124 0 3 307 797
47	157277 10 0 0 0 0 1 0 0 0 0
48	157287 3340 0 138866 0 3.036805701022 124 0 3 307 797
49	160627 10 0 0 0 0 1 0 0 0 0
50	160637 3336 0 137793 0 3.014469821622 124 0 3 307 797
51	163973 10 0 0 0 0 1 0 0 0 0
52	163983 3342 0 139243 0 3.048155427246 124 0 3 307 797
53	167325 10 0 0 0 0 1 0 0 0 0
54	167335 3340 0 138166 0 3.021710403193 124 0 3 307 797
55	170675 10 0 0 0 0 1 0 0 0 0
56	170685 3336 0 137568 0 3.012483656987 124 0 3 307 797
57	174021 10 0 0 0 0 1 0 0 0 0
58	174031 3342 0 138936 0 3.037851334572 124 0 3 307 797
59	177373 10 0 0 0 0 1 0 0 0 0
60	177383 13274 0 139331 0 3.050281865125 489 0 3 793 1887
61	190657 9192 0 139395 0 3.050513835087 339 0 3 490 1128
62	199849 28315 0 139627 0 3.057368718392 1043 0 3 1901 4657
63	228164 27490 0 139633 0 3.057368791721 1015 0 3 1846 4522
64	255654 24564 0 139620 0 3.057368440867 913 0 3 1639 4003
65	280218 14603 0 139466 0 3.051051924199 537 0 3 890 2132
66	294821 24436 0 139598 0 3.057322967909 904 0 3 1623 3961
67	319257 6648 0 139080 0 3.042115306108 245 0 3 306 672
68	325905 21436 0 139165 0 3.042163676206 797 0 3 1408 3422
69	347341 13385 0 139396 0 3.050514382406 493 0 3 800 1902
70	360726 14120 0 138636 0 3.033937355452 521 0 3 855 2037
71	374846 14064 0 139596 0 3.057322883641 518 0 3 853 2041
72	388910 19836 0 139600 0 3.057323140247 734 0 3 1283 3111
73	408746 12760 0 138253 0 3.027687074208 469 0 3 754 1792
74	421506 11586 0 139464 0 3.051051377527 429 0 3 671 1583
75	433092 14880 0 139630 0 3.057368748707 547 0 3 910 2182
76	447972 14018 0 139604 0 3.057323504176 518 0 3 853 2041
77	461990 11660 0 138717 0 3.035233671674 429 0 3 674 1592
78	473650 13246 0 139320 0 3.050280774104 489 0 3 791 1883
79	486896 22756 0 139619 0 3.057368088163 845 0 3 1503 3663
80	509652 13104 0 138635 0 3.033936826965 487 0 3 788 1872
[...]
98	883736 18384 0 139395 0 3.050513835087 678 0 0 0 0
99	902120 18384 0 139395 0 3.050513835087 678 0 0 0 0
100	920504 65600 0 139627 0 3.057368718392 2330 0 2 244 488
101	986104 58716 0 139627 0 3.057368718392 2086 0 0 0 0
102	1044820 58716 0 139627 0 3.057368718392 2086 0 0 0 0
103	1103536 58716 0 139627 0 3.057368718392 2086 0 0 0 0
104	1162252 58716 0 139627 0 3.057368718392 2086 0 0 0 0
105	1220968 63898 0 139633 0 3.057368791721 2274 0 2 244 488
106	1284866 57010 0 139633 0 3.057368791721 2030 0 0 0 0
107	1341876 57010 0 139633 0 3.057368791721 2030 0 0 0 0
108	1398886 57010 0 139633 0 3.057368791721 2030 0 0 0 0
109	1455896 57010 0 139633 0 3.057368791721 2030 0 0 0 0
110	1512906 57450 0 139620 0 3.057368440867 2074 0 2 248 496
111	1570356 50954 0 139620 0 3.057368440867 1826 0 0 0 0
112	1621310 50954 0 139620 0 3.057368440867 1826 0 0 0 0
113	1672264 50954 0 139620 0 3.057368440867 1826 0 0 0 0
114	1723218 50954 0 139620 0 3.057368440867 1826 0 0 0 0
115	1774172 37164 0 139466 0 3.051051924199 1318 0 2 244 488
116	1811336 30280 0 139466 0 3.051051924199 1074 0 0 0 0
117	1841616 30280 0 139466 0 3.051051924199 1074 0 0 0 0
118	1871896 30280 0 139466 0 3.051051924199 1074 0 0 0 0
119	1902176 30280 0 139466 0 3.051051924199 1074 0 0 0 0
120	1932456 57564 0 139598 0 3.057322967909 2052 0 2 244 488
121	1990020 50680 0 139598 0 3.057322967909 1808 0 0 0 0
122	2040700 50680 0 139598 0 3.057322967909 1808 0 0 0 0
123	2091380 50680 0 139598 0 3.057322967909 1808 0 0 0 0
124	2142060 50680 0 139598 0 3.057322967909 1808 0 0 0 0
125	2192740 20674 0 139080 0 3.042115306108 734 0 2 244 488
126	2213414 13786 0 139080 0 3.042115306108 490 0 0 0 0
127	2227200 13786 0 139080 0 3.042115306108 490 0 0 0 0
128	2240986 13786 0 139080 0 3.042115306108 490 0 0 0 0
129	2254772 13786 0 139080 0 3.042115306108 490 0 0 0 0
130	2268558 51342 0 139165 0 3.042163676206 1838 0 2 280 524
131	2319900 44466 0 139165 0 3.042163676206 1594 0 0 0 0
132	2364366 44466 0 139165 0 3.042163676206 1594 0 0 0 0
133	2408832 44466 0 139165 0 3.042163676206 1594 0 0 0 0
134	2453298 44466 0 139165 0 3.042163676206 1594 0 0 0 0
135	2497764 34632 0 139396 0 3.050514382406 1230 0 2 244 488
136	2532396 27756 0 139396 0 3.050514382406 986 0 0 0 0
137	2560152 27756 0 139396 0 3.050514382406 986 0 0 0 0
138	2587908 27756 0 139396 0 3.050514382406 986 0 0 0 0
139	2615664 27756 0 139396 0 3.050514382406 986 0 0 0 0
140	2643420 36718 0 138636 0 3.033937355452 1306 0 2 244 488
141	2680138 29842 0 138636 0 3.033937355452 1062 0 0 0 0
142	2709980 29842 0 138636 0 3.033937355452 1062 0 0 0 0
143	2739822 29842 0 138636 0 3.033937355452 1062 0 0 0 0
144	2769664 29842 0 138636 0 3.033937355452 1062 0 0 0 0
145	2799506 36048 0 139596 0 3.057322883641 1280 0 2 244 488
146	2835554 29164 0 139596 0 3.057322883641 1036 0 0 0 0
147	2864718 29164 0 139596 0 3.057322883641 1036 0 0 0 0
148	2893882 29164 0 139596 0 3.057322883641 1036 0 0 0 0
149	2923046 29164 0 139596 0 3.057322883641 1036 0 0 0 0
150	2952210 48024 0 139600 0 3.057323140247 1712 0 2 244 488
151	3000234 41140 0 139600 0 3.057323140247 1468 0 0 0 0
152	3041374 41140 0 139600 0 3.057323140247 1468 0 0 0 0
153	3082514 41140 0 139600 0 3.057323140247 1468 0 0 0 0
154	3123654 41140 0 139600 0 3.057323140247 1468 0 0 0 0
155	3164794 33342 0 138253 0 3.027687074208 1182 0 2 244 488
156	3198136 26458 0 138253 0 3.027687074208 938 0 0 0 0
157	3224594 26458 0 138253 0 3.027687074208 938 0 0 0 0
158	3251052 26458 0 138253 0 3.027687074208 938 0 0 0 0
159	3277510 26458 0 138253 0 3.027687074208 938 0 0 0 0
160	3303968 31022 0 139464 0 3.051051377527 1106 0 2 248 496
161	3334990 24030 0 139464 0 3.051051377527 858 0 0 0 0
162	3359020 24030 0 139464 0 3.051051377527 858 0 0 0 0
163	3383050 24030 0 139464 0 3.051051377527 858 0 0 0 0
164	3407080 24030 0 139464 0 3.051051377527 858 0 0 0 0
165	3431110 37730 0 139630 0 3.057368748707 1338 0 2 244 488
166	3468840 30854 0 139630 0 3.057368748707 1094 0 0 0 0
167	3499694 30854 0 139630 0 3.057368748707 1094 0 0 0 0
168	3530548 30854 0 139630 0 3.057368748707 1094 0 0 0 0
169	3561402 30854 0 139630 0 3.057368748707 1094 0 0 0 0
170	3592256 35960 0 139604 0 3.057323504176 1280 0 2 244 488
171	3628216 29072 0 139604 0 3.057323504176 1036 0 0 0 0
172	3657288 29072 0 139604 0 3.057323504176 1036 0 0 0 0
173	3686360 29072 0 139604 0 3.057323504176 1036 0 0 0 0
174	3715432 29072 0 139604 0 3.057323504176 1036 0 0 0 0
175	3744504 31058 0 138717 0 3.035233671674 1102 0 2 244 488
176	3775562 24178 0 138717 0 3.035233671674 858 0 0 0 0
177	3799740 24178 0 138717 0 3.035233671674 858 0 0 0 0
178	3823918 24178 0 138717 0 3.035233671674 858 0 0 0 0
179	3848096 24178 0 138717 0 3.035233671674 858 0 0 0 0
180	3872274 34440 0 139320 0 3.050280774104 1226 0 2 248 496
181	3906714 27470 0 139320 0 3.050280774104 978 0 0 0 0
182	3934184 27470 0 139320 0 3.050280774104 978 0 0 0 0
183	3961654 27470 0 139320 0 3.050280774104 978 0 0 0 0
184	3989124 27470 0 139320 0 3.050280774104 978 0 0 0 0
185	4016594 54194 0 139619 0 3.057368088163 1938 0 2 248 496
186	4070788 47202 0 139619 0 3.057368088163 1690 0 0 0 0
187	4117990 47202 0 139619 0 3.057368088163 1690 0 0 0 0
188	4165192 47202 0 139619 0 3.057368088163 1690 0 0 0 0
189	4212394 47202 0 139619 0 3.057368088163 1690 0 0 0 0
190	4259596 34060 0 138635 0 3.033936826965 1218 0 2 244 488
191	4293656 27182 0 138635 0 3.033936826965 974 0 0 0 0
192	4320838 27182 0 138635 0 3.033936826965 974 0 0 0 0
193	4348020 27182 0 138635 0 3.033936826965 974 0 0 0 0
194	4375202 27182 0 138635 0 3.033936826965 974 0 0 0 0
195	4402384 37112 0 139324 0 3.050280989399 1318 0 2 244 488
196	4439496 30228 0 139324 0 3.050280989399 1074 0 0 0 0
197	4469724 30228 0 139324 0 3.050280989399 1074 0 0 0 0
198	4499952 30228 0 139324 0 3.050280989399 1074 0 0 0 0
199	4530180 30228 0 139324 0 3.050280989399 1074 0 0 0 0
200	4560408 56900 0 139549 0 3.056636591364 2018 0 2 244 488
201	4617308 50024 0 139549 0 3.056636591364 1774 0 0 0 0
202	4667332 50024 0 139549 0 3.056636591364 1774 0 0 0 0
203	4717356 50024 0 139549 0 3.056636591364 1774 0 0 0 0
204	4767380 50024 0 139549 0 3.056636591364 1774 0 0 0 0
205	4817404 37306 0 139471 0 3.051052484729 1346 0 2 244 488
206	4854710 30666 0 139471 0 3.051052484729 1102 0 0 0 0
207	4885376 30666 0 139471 0 3.051052484729 1102 0 0 0 0
208	4916042 30666 0 139471 0 3.051052484729 1102 0 0 0 0
209	4946708 30666 0 139471 0 3.051052484729 1102 0 0 0 0
210	4977374 37450 0 139624 0 3.057368697703 1330 0 2 244 488
211	5014824 30566 0 139624 0 3.057368697703 1086 0 0 0 0
212	5045390 30566 0 139624 0 3.057368697703 1086 0 0 0 0
213	5075956 30566 0 139624 0 3.057368697703 1086 0 0 0 0
214	5106522 30566 0 139624 0 3.057368697703 1086 0 0 0 0
215	5137088 57138 0 139552 0 3.056636657923 2030 0 2 244 488
216	5194226 50262 0 139552 0 3.056636657923 1786 0 0 0 0
217	5244488 50262 0 139552 0 3.056636657923 1786 0 0 0 0
218	5294750 50262 0 139552 0 3.056636657923 1786 0 0 0 0
219	5345012 50262 0 139552 0 3.056636657923 1786 0 0 0 0
220	5395274 39462 0 139559 0 3.056636773518 1406 0 2 244 488
221	5434736 32574 0 139559 0 3.056636773518 1162 0 0 0 0
222	5467310 32574 0 139559 0 3.056636773518 1162 0 0 0 0
223	5499884 32574 0 139559 0 3.056636773518 1162 0 0 0 0
224	5532458 32574 0 139559 0 3.056636773518 1162 0 0 0 0
225	5565032 48436 0 139257 0 3.048156583641 1730 0 2 244 488
226	5613468 41552 0 139257 0 3.048156583641 1486 0 0 0 0
227	5655020 41552 0 139257 0 3.048156583641 1486 0 0 0 0
228	5696572 41552 0 139257 0 3.048156583641 1486 0 0 0 0
229	5738124 41552 0 139257 0 3.048156583641 1486 0 0 0 0
230	5779676 40642 0 139013 0 3.041493170977 1442 0 2 244 488
231	5820318 33766 0 139013 0 3.041493170977 1198 0 0 0 0
232	5854084 33766 0 139013 0 3.041493170977 1198 0 0 0 0
233	5887850 33766 0 139013 0 3.041493170977 1198 0 0 0 0
234	5921616 33766 0 139013 0 3.041493170977 1198 0 0 0 0
235	5955382 39632 0 139603 0 3.057323469822 1420 0 2 244 488
236	5995014 32744 0 139603 0 3.057323469822 1176 0 0 0 0
237	6027758 32744 0 139603 0 3.057323469822 1176 0 0 0 0
238	6060502 32744 0 139603 0 3.057323469822 1176 0 0 0 0
239	6093246 32744 0 139603 0 3.057323469822 1176 0 0 0 0
240	6125990 1808 2 139284 0.000234774104 3.050234774104 62 48 48 2976 142848
241	6127798 1801 5 139287 0.00043 3.050234774104 62 48 48 2976 142848
242	6129599 6960 6 139320 0.00043 3.050280774104 248 0 2 248 372
243	6136559 1809 38 139359 0.000467835087 3.050467835087 62 48 48 2976 142848
244	6138368 6051 42 139467 0.000476165568 3.051051924199 207 48 48 9936 476928
245	6144419 6051 42 139467 0.000476165568 3.051051924199 207 48 48 9936 476928
246	6150470 6038 45 139325 0.000476215295 3.050280989399 207 48 48 9936 476928
247	6156508 6038 45 139325 0.000476215295 3.050280989399 207 48 48 9936 476928
248	6162546 4406 48 139328 0.000476538266 3.05028131237 152 48 48 7296 350208
249	6166952 4406 48 139328 0.000476538266 3.05028131237 152 48 48 7296 350208
250	6171358 1802 78 139362 0.00061 3.050467835087 62 48 48 2976 142848
251	6173160 6964 79 139395 0.00061 3.050513835087 248 0 2 248 372
252	6180124 5341 113 139397 0.000656547319 3.050514382406 183 48 48 8784 421632
253	6185465 5341 113 139397 0.000656547319 3.050514382406 183 48 48 8784 421632
254	6190806 5311 118 139332 0.000657051705 3.050281865125 182 48 48 8736 419328
255	6196117 5311 118 139332 0.000657051705 3.050281865125 182 48 48 8736 419328
256	6201428 1810 146 139428 0.001005377527 3.051005377527 62 48 48 2976 142848
257	6203238 1810 149 139431 0.001026538266 3.051005377527 62 48 48 2976 142848
258	6205048 6992 150 139464 0.001026538266 3.051051377527 248 0 2 248 372
259	6212040 5304 184 138482 0.001073076532 3.032404872497 182 48 48 8736 419328
260	6217344 5304 184 138482 0.001073076532 3.032404872497 182 48 48 8736 419328
261	6222648 6159 194 139472 0.001073645468 3.051052484729 212 48 48 10176 488448
262	6228807 6159 194 139472 0.001073645468 3.051052484729 212 48 48 10176 488448
263	6234966 1686 221 139502 0.0065898931 3.0565898931 62 48 48 2976 142848
264	6236652 1686 224 139505 0.0065898931 3.0565898931 62 48 48 2976 142848
265	6238338 6496 225 139538 0.0065898931 3.0566358931 248 0 2 248 372
266	6244834 10407 259 139540 0.006636245804 3.056636245804 360 48 48 17280 829440
267	6255241 10407 259 139540 0.006636245804 3.056636245804 360 48 48 17280 829440
268	6265648 13384 262 139628 0.006636313323 3.057368718392 459 48 48 22032 1057536
269	6279032 13384 262 139628 0.006636313323 3.057368718392 459 48 48 22032 1057536
270	6292416 10814 267 139550 0.006636591364 3.056636591364 370 48 48 17760 852480
271	6303230 10231 267 139550 0.006636591364 3.056636591364 350 48 48 16800 806400
272	6313461 11168 270 139553 0.006636657923 3.056636657923 383 48 48 18384 882432
273	6324629 11168 270 139553 0.006636657923 3.056636657923 383 48 48 18384 882432
274	6335797 6645 275 139560 0.006636773518 3.056636773518 229 48 48 10992 527616
275	6342442 6645 275 139560 0.006636773518 3.056636773518 229 48 48 10992 527616
276	6349087 6201 278 139631 0.006636809205 3.057368748707 212 48 48 10176 488448
277	6355288 6201 278 139631 0.006636809205 3.057368748707 212 48 48 10176 488448
278	6361489 6125 281 139625 0.006636843766 3.057368697703 210 48 48 10080 483840
279	6367614 6125 281 139625 0.006636843766 3.057368697703 210 48 48 10080 483840
280	6373739 9671 284 139166 0.00663685234 3.042163676206 335 48 48 16080 771840
281	6383410 9671 284 139166 0.00663685234 3.042163676206 335 48 48 16080 771840
282	6393081 6676 293 139011 0.006637434045 3.041493150126 232 48 48 11136 534528
283	6399757 6676 293 139011 0.006637434045 3.041493150126 232 48 48 11136 534528
284	6406433 1810 306 139583 0.007322088163 3.057322088163 62 48 48 2976 142848
285	6408243 1810 309 139586 0.007322088163 3.057322088163 62 48 48 2976 142848
286	6410053 6992 310 139619 0.007322088163 3.057368088163 248 0 2 248 372
287	6417045 11503 344 139621 0.007368440867 3.057368440867 394 48 48 18912 907776
288	6428548 11503 344 139621 0.007368440867 3.057368440867 394 48 48 18912 907776
289	6440051 12971 355 139634 0.007368791721 3.057368791721 446 48 48 21408 1027584
290	6453022 12971 355 139634 0.007368791721 3.057368791721 446 48 48 21408 1027584
291	6465993 8972 358 139258 0.00736883407 3.048156583641 310 48 48 14880 714240
292	6474965 8972 358 139258 0.00736883407 3.048156583641 310 48 48 14880 714240
293	6483937 1780 383 137379 0.008247023029 3.008247023029 61 48 48 2928 140544
294	6485717 1780 386 137382 0.008247023029 3.008247023029 61 48 48 2928 140544
295	6487497 6876 387 137415 0.008247023029 3.008293023029 244 0 2 244 366
296	6494373 5747 424 139252 0.008293653089 3.048156211531 197 48 48 9456 453888
297	6500120 5747 424 139252 0.008293653089 3.048156211531 197 48 48 9456 453888
298	6505867 1780 460 137452 0.009159568173 3.009159568173 61 48 48 2928 140544
299	6507647 1780 463 137455 0.009159568173 3.009159568173 61 48 48 2928 140544
300	6509427 6876 464 137488 0.009159568173 3.009205568173 244 0 2 244 366
301	6516303 1780 534 137532 0.012437656987 3.012437656987 61 48 48 2928 140544
302	6518083 1780 537 137535 0.012437656987 3.012437656987 61 48 48 2928 140544
303	6519863 6876 538 137568 0.012437656987 3.012483656987 244 0 2 244 366
304	6526739 5723 575 138941 0.012483826548 3.037851483282 197 48 48 9456 453888
305	6532462 5723 575 138941 0.012483826548 3.037851483282 197 48 48 9456 453888
306	6538185 8790 578 138798 0.012484155693 3.03586289285 303 48 48 14544 698112
307	6546975 8790 578 138798 0.012484155693 3.03586289285 303 48 48 14544 698112
308	6555765 11262 582 139556 0.012484685441 3.056636659384 388 48 48 18624 893952
309	6567027 11262 582 139556 0.012484685441 3.056636659384 388 48 48 18624 893952
310	6578289 1780 609 137605 0.013236508216 3.013236508216 61 48 48 2928 140544
311	6580069 1780 612 137608 0.013236508216 3.013236508216 61 48 48 2928 140544
312	6581849 6876 613 137641 0.013236508216 3.013282508216 244 0 2 244 366
313	6588725 3098 647 137954 0.013283055535 3.015975499452 106 48 48 5088 244224
314	6591823 3098 647 137954 0.013283055535 3.015975499452 106 48 48 5088 244224
315	6594921 1780 684 137678 0.013500398432 3.013500398432 61 48 48 2928 140544
316	6596701 1780 687 137681 0.013500398432 3.013693496601 61 48 48 2928 140544
317	6598481 6876 688 137714 0.013500398432 3.013739496601 244 0 2 244 366
318	6605357 5197 738 137493 0.013547265441 3.00920609666 180 48 48 8640 414720
319	6610554 5197 738 137493 0.013547265441 3.00920609666 180 48 48 8640 414720
320	6615751 1780 761 137757 0.014423821622 3.014423821622 61 48 48 2928 140544
321	6617531 1780 764 137760 0.014423821622 3.014423821622 61 48 48 2928 140544
322	6619311 6876 765 137793 0.014423821622 3.014469821622 244 0 2 244 366
323	6626187 1780 808 137804 0.014470304549 3.014470304549 61 48 48 2928 140544
324	6627967 1780 811 137807 0.014470304549 3.014470304549 61 48 48 2928 140544
325	6629747 6876 812 137868 0.014470304549 3.014516304549 244 0 2 244 366
326	6636623 5708 881 138637 0.014516709354 3.033937355452 196 48 48 9408 451584
327	6642331 5418 881 138637 0.014516709354 3.033937355452 186 48 48 8928 428544
328	6647749 1781 921 137907 0.015928447747 3.015928447747 61 48 48 2928 140544
329	6649530 1781 924 137910 0.015928447747 3.015928447747 61 48 48 2928 140544
330	6651311 6880 925 137943 0.015928447747 3.015974447747 244 0 2 244 366
331	6658191 1781 997 137983 0.018490404787 3.018490404787 61 48 48 2928 140544
332	6659972 1782 1000 137986 0.018490404787 3.018490404787 61 48 48 2928 140544
333	6661754 6884 1001 138019 0.018490404787 3.018536404787 244 0 2 244 366
334	6668638 5061 1035 138021 0.018536814405 3.018536814405 173 48 48 8304 398592
335	6673699 5061 1035 138021 0.018536814405 3.018536814405 173 48 48 8304 398592
336	6678760 1780 1038 133695 0.018537133594 2.927688034993 61 48 48 2928 140544
337	6680540 1780 1038 133695 0.018537133594 2.927688034993 61 48 48 2928 140544
338	6682320 1782 1069 138055 0.019891037582 3.019891037582 61 48 48 2928 140544
339	6684102 1782 1072 138058 0.019891037582 3.019891037582 61 48 48 2928 140544
340	6685884 6884 1073 138091 0.019891037582 3.019937037582 244 0 2 244 366
341	6692768 4471 1116 138718 0.019937960847 3.035233671674 153 48 48 7344 352512
342	6697239 4471 1116 138718 0.019937960847 3.035233671674 153 48 48 7344 352512
343	6701710 1782 1142 138130 0.021664403193 3.021664403193 61 48 48 2928 140544
344	6703492 1782 1145 138133 0.021664403193 3.021664403193 61 48 48 2928 140544
345	6705274 6884 1146 138166 0.021664403193 3.021710403193 244 0 2 244 366
346	6712158 1782 1227 138217 0.027641074208 3.027641074208 61 48 48 2928 140544
347	6713940 1782 1230 138220 0.027641074208 3.027641074208 61 48 48 2928 140544
348	6715722 6884 1231 138253 0.027641074208 3.027687074208 244 0 2 244 366
349	6722606 1782 1300 138288 0.028480920219 3.028480920219 61 48 48 2928 140544
350	6724388 1782 1303 138291 0.028480920219 3.028480920219 61 48 48 2928 140544
351	6726170 6884 1304 138324 0.028480920219 3.028526920219 244 0 2 244 366
352	6733054 1782 1376 138362 0.029325646651 3.029325646651 61 48 48 2928 140544
353	6734836 1782 1379 138365 0.029325646651 3.029325646651 61 48 48 2928 140544
354	6736618 6884 1380 138398 0.029325646651 3.029371646651 244 0 2 244 366
355	6743502 6955 1415 139014 0.029372145357 3.041493170977 238 48 48 11424 548352
356	6750457 6955 1415 139014 0.029372145357 3.041493170977 238 48 48 11424 548352
357	6757412 1782 1453 138441 0.032358706929 3.032358706929 61 48 48 2928 140544
358	6759194 1782 1456 138444 0.032358706929 3.032358706929 61 48 48 2928 140544
359	6760976 6884 1457 138477 0.032358706929 3.032404706929 244 0 2 244 366
360	6767860 1782 1526 138514 0.033370518812 3.033370518812 61 48 48 2928 140544
361	6769642 1782 1529 138517 0.033370518812 3.033370518812 61 48 48 2928 140544
362	6771424 6884 1530 138550 0.033370518812 3.033416518812 244 0 2 244 366
363	6778308 1782 1601 138599 0.033890826965 3.033890826965 61 48 48 2928 140544
364	6780090 1779 1604 138602 0.033890826965 3.033890826965 61 48 48 2928 140544
365	6781869 6872 1605 138635 0.033890826965 3.033936826965 244 0 2 244 366
366	6788741 1721 1676 138674 0.03518686404 3.03518686404 61 48 48 2928 140544
367	6790462 1721 1679 138677 0.03518686404 3.03518686404 61 48 48 2928 140544
368	6792183 6640 1680 138710 0.03518686404 3.03523286404 244 0 2 244 366
369	6798823 1782 1749 138751 0.035816359892 3.035816359892 61 48 48 2928 140544
370	6800605 1782 1752 138754 0.035816359892 3.035816359892 61 48 48 2928 140544
371	6802387 6884 1753 138787 0.035816359892 3.035862359892 244 0 2 244 366
372	6809271 1782 1826 138830 0.036759701022 3.036759701022 61 48 48 2928 140544
373	6811053 1782 1829 138833 0.036759701022 3.036759701022 61 48 48 2928 140544
374	6812835 6884 1830 138866 0.036759701022 3.036805701022 244 0 2 244 366
375	6819719 1783 1904 138900 0.037805334572 3.037805334572 61 48 48 2928 140544
376	6821502 1783 1907 138903 0.037805334572 3.037805334572 61 48 48 2928 140544
377	6823285 6888 1908 138936 0.037805334572 3.037851334572 244 0 2 244 366
378	6830173 1783 1979 138973 0.041447001416 3.041447001416 61 48 48 2928 140544
379	6831956 1783 1982 138976 0.041447001416 3.041447001416 61 48 48 2928 140544
380	6833739 6888 1983 139009 0.041447001416 3.041493001416 244 0 2 244 366
381	6840627 1783 2052 139044 0.042069306108 3.042069306108 61 48 48 2928 140544
382	6842410 1783 2055 139047 0.042069306108 3.042069306108 61 48 48 2928 140544
383	6844193 6888 2056 139080 0.042069306108 3.042115306108 244 0 2 244 366
384	6851081 1783 2098 139090 0.042117103958 3.042117103958 61 48 48 2928 140544
385	6852864 1783 2101 139093 0.042117103958 3.042117103958 61 48 48 2928 140544
386	6854647 6888 2102 139149 0.042117103958 3.042163103958 244 0 2 244 366
387	6861535 1783 2209 139207 0.048109427246 3.048109427246 61 48 48 2928 140544
388	6863318 1783 2212 139210 0.048109427246 3.048109427246 61 48 48 2928 140544
389	6865101 6888 2213 139243 0.048109427246 3.048155427246 244 0 2 244 366

