version 2
run General-1-20200722-16:41:16-5520
attr configname General
attr datetime 20200722-16:41:16
attr experiment General
attr inifile omnetpp.ini
attr iterationvars $bitrate=9
attr iterationvarsf bitrate=9-
attr measurement $bitrate=9
attr network Scenario
attr processid 5520
attr repetition 0
attr replication #0
attr resultdir results
attr runnumber 1
attr seedset 1
itervar bitrate 9
param Scenario.*.mobilityType "\"VeinsInetMobility\""
param Scenario.*.mobility.constraintAreaMinX 0m
param Scenario.*.mobility.constraintAreaMinY 0m
param Scenario.*.mobility.constraintAreaMinZ 0m
param Scenario.*.mobility.constraintAreaMaxX 5000m
param Scenario.*.mobility.constraintAreaMaxY 5000m
param Scenario.*.mobility.constraintAreaMaxZ 0m
param Scenario.node[*].ac_wlan.interfaces "\"wlan0\""
param Scenario.*.**.mgmtType "\"Ieee80211MgmtAP\""
param Scenario.*.**.radioType "\"Ieee80211ScalarRadio\""
param Scenario.*.**.opMode "\"g(erp)\""
param Scenario.*.**.bitrate 9Mbps
param **.mac.address "\"auto\""
param **.mac.maxQueueSize 14
param **.mac.rtsThresholdBytes 4000B
param **.wlan[*].mac.retryLimit 7
param **.wlan[*].mac.cwMinData 15
param Scenario.*.**.mgmt.beaconInterval 100ms
param Scenario.*.**.radio.carrierFrequency 2.412GHz
param Scenario.*.**.radio.bandwidth 20MHz
param Scenario.*.**.radio.transmitter.power 25mW
param Scenario.*.**.radio.receiver.sensitivity -85dBm
param Scenario.radioMedium.physicalEnvironmentModule "\"physicalEnvironment\""
param Scenario.radioMedium.propagationType "\"ConstantSpeedPropagation\""
param Scenario.radioMedium.pathLossType "\"NakagamiFading\""
param Scenario.radioMedium.analogModelType "\"ScalarAnalogModel\""
param Scenario.radioMedium.backgroundNoise.typename "\"IsotropicScalarBackgroundNoise\""
param Scenario.radioMedium.backgroundNoise.power "-110 dBm"
param Scenario.node[0].wlan[*].mgmt.ssid "\"node_0\""
param Scenario.node[1].wlan[*].mgmt.ssid "\"node_1\""
param Scenario.node[2].wlan[*].mgmt.ssid "\"node_2\""
param Scenario.node[3].wlan[*].mgmt.ssid "\"node_3\""
param Scenario.node[4].wlan[*].mgmt.ssid "\"node_4\""
param Scenario.node[5].wlan[*].mgmt.ssid "\"node_5\""
param Scenario.node[6].wlan[*].mgmt.ssid "\"node_6\""
param Scenario.node[7].wlan[*].mgmt.ssid "\"node_7\""
param Scenario.node[8].wlan[*].mgmt.ssid "\"node_8\""
param Scenario.node[9].wlan[*].mgmt.ssid "\"node_9\""
param Scenario.node[10].wlan[*].mgmt.ssid "\"node_10\""
param Scenario.node[11].wlan[*].mgmt.ssid "\"node_11\""
param Scenario.node[12].wlan[*].mgmt.ssid "\"node_12\""
param Scenario.node[13].wlan[*].mgmt.ssid "\"node_13\""
param Scenario.node[14].wlan[*].mgmt.ssid "\"node_14\""
param Scenario.node[15].wlan[*].mgmt.ssid "\"node_15\""
param Scenario.node[16].wlan[*].mgmt.ssid "\"node_16\""
param Scenario.node[17].wlan[*].mgmt.ssid "\"node_17\""
param Scenario.node[18].wlan[*].mgmt.ssid "\"node_18\""
param Scenario.node[19].wlan[*].mgmt.ssid "\"node_19\""
param Scenario.node[20].wlan[*].mgmt.ssid "\"node_20\""
param Scenario.node[21].wlan[*].mgmt.ssid "\"node_21\""
param Scenario.node[22].wlan[*].mgmt.ssid "\"node_22\""
param Scenario.node[23].wlan[*].mgmt.ssid "\"node_23\""
param Scenario.node[24].wlan[*].mgmt.ssid "\"node_24\""
param Scenario.node[25].wlan[*].mgmt.ssid "\"node_25\""
param Scenario.node[26].wlan[*].mgmt.ssid "\"node_26\""
param Scenario.node[27].wlan[*].mgmt.ssid "\"node_27\""
param Scenario.node[28].wlan[*].mgmt.ssid "\"node_28\""
param Scenario.node[29].wlan[*].mgmt.ssid "\"node_29\""
param Scenario.node[30].wlan[*].mgmt.ssid "\"node_30\""
param Scenario.node[31].wlan[*].mgmt.ssid "\"node_31\""
param Scenario.node[32].wlan[*].mgmt.ssid "\"node_32\""
param Scenario.node[33].wlan[*].mgmt.ssid "\"node_33\""
param Scenario.node[34].wlan[*].mgmt.ssid "\"node_34\""
param Scenario.node[35].wlan[*].mgmt.ssid "\"node_35\""
param Scenario.node[36].wlan[*].mgmt.ssid "\"node_36\""
param Scenario.node[37].wlan[*].mgmt.ssid "\"node_37\""
param Scenario.node[38].wlan[*].mgmt.ssid "\"node_38\""
param Scenario.node[39].wlan[*].mgmt.ssid "\"node_39\""
param Scenario.node[40].wlan[*].mgmt.ssid "\"node_40\""
param Scenario.node[41].wlan[*].mgmt.ssid "\"node_41\""
param Scenario.node[42].wlan[*].mgmt.ssid "\"node_42\""
param Scenario.node[43].wlan[*].mgmt.ssid "\"node_43\""
param Scenario.node[44].wlan[*].mgmt.ssid "\"node_44\""
param Scenario.node[45].wlan[*].mgmt.ssid "\"node_45\""
param Scenario.node[46].wlan[*].mgmt.ssid "\"node_46\""
param Scenario.node[47].wlan[*].mgmt.ssid "\"node_47\""
param Scenario.node[48].wlan[*].mgmt.ssid "\"node_48\""
param Scenario.node[49].wlan[*].mgmt.ssid "\"node_49\""
param Scenario.manager.updateInterval 0.001s
param Scenario.manager.host "\"localhost\""
param Scenario.manager.port 9999
param Scenario.manager.autoShutdown true
param Scenario.manager.launchConfig "xmldoc(\"straight.launchd.xml\")"
param *.manager.moduleType "\"vtype0=fyp.simulations.singleSide.Car pedestrian=fyp.simulations.singleSideWithPedestrians.pedestrian\""
param *.manager.moduleName "\"vtype0=node pedestrian=ped\""
param *.manager.moduleDisplayString "\"vtype0='i=veins/node/car;is=vs' pedestrian='i=veins/node/pedestrian;is=vs'\""

vector 0 Scenario.node[0].wlan[0].radio radioMode:vector ETV
attr interpolationmode sample-hold
attr source radioModeChanged
attr title "Radio mode, vector"
vector 1 Scenario.node[0].wlan[0].radio radioChannel:vector ETV
attr interpolationmode sample-hold
attr source radioChannelChanged
attr title "Radio channel, vector"
vector 2 Scenario.node[0].wlan[0].radio receptionState:vector ETV
attr interpolationmode sample-hold
attr source receptionStateChanged
attr title "Radio reception state, vector"
vector 3 Scenario.node[0].wlan[0].mac.dcf.channelAccess.contention state:vector ETV
attr interpolationmode none
attr source stateChanged
attr title "contention state, vector"
vector 4 Scenario.node[0].wlan[0].mac.hcf.edca.edcaf[0].contention state:vector ETV
attr interpolationmode none
attr source stateChanged
attr title "contention state, vector"
vector 5 Scenario.node[0].wlan[0].mac.hcf.edca.edcaf[1].contention state:vector ETV
attr interpolationmode none
attr source stateChanged
attr title "contention state, vector"
vector 6 Scenario.node[0].wlan[0].mac.hcf.edca.edcaf[2].contention state:vector ETV
attr interpolationmode none
attr source stateChanged
attr title "contention state, vector"
vector 7 Scenario.node[0].wlan[0].mac.hcf.edca.edcaf[3].contention state:vector ETV
attr interpolationmode none
attr source stateChanged
attr title "contention state, vector"
vector 8 Scenario.node[0].wlan[0].mac rcvdPkFromHL:vector(packetBytes) ETV
attr interpolationmode none
attr source packetReceivedFromUpper
attr title "packets received from higher layer, vector(packetBytes)"
vector 9 Scenario.node[0].wlan[0].mac sentDownPk:vector(packetBytes) ETV
attr interpolationmode none
attr source packetSentToLower
attr title "packets sent to lower layer, vector(packetBytes)"
vector 10 Scenario.node[0].wlan[0].radio transmissionState:vector ETV
attr interpolationmode sample-hold
attr source transmissionStateChanged
attr title "Radio transmission state, vector"
vector 11 Scenario.node[1].wlan[0].radio radioMode:vector ETV
attr interpolationmode sample-hold
attr source radioModeChanged
attr title "Radio mode, vector"
vector 12 Scenario.node[1].wlan[0].radio radioChannel:vector ETV
attr interpolationmode sample-hold
attr source radioChannelChanged
attr title "Radio channel, vector"
vector 13 Scenario.node[1].wlan[0].radio receptionState:vector ETV
attr interpolationmode sample-hold
attr source receptionStateChanged
attr title "Radio reception state, vector"
vector 14 Scenario.node[1].wlan[0].mac.dcf.channelAccess.contention state:vector ETV
attr interpolationmode none
attr source stateChanged
attr title "contention state, vector"
vector 15 Scenario.node[1].wlan[0].mac.hcf.edca.edcaf[0].contention state:vector ETV
attr interpolationmode none
attr source stateChanged
attr title "contention state, vector"
vector 16 Scenario.node[1].wlan[0].mac.hcf.edca.edcaf[1].contention state:vector ETV
attr interpolationmode none
attr source stateChanged
attr title "contention state, vector"
vector 17 Scenario.node[1].wlan[0].mac.hcf.edca.edcaf[2].contention state:vector ETV
attr interpolationmode none
attr source stateChanged
attr title "contention state, vector"
vector 18 Scenario.node[1].wlan[0].mac.hcf.edca.edcaf[3].contention state:vector ETV
attr interpolationmode none
attr source stateChanged
attr title "contention state, vector"
vector 19 Scenario.node[1].wlan[0].mac rcvdPkFromHL:vector(packetBytes) ETV
attr interpolationmode none
attr source packetReceivedFromUpper
attr title "packets received from higher layer, vector(packetBytes)"
vector 20 Scenario.node[1].wlan[0].mac sentDownPk:vector(packetBytes) ETV
attr interpolationmode none
attr source packetSentToLower
attr title "packets sent to lower layer, vector(packetBytes)"
vector 21 Scenario.node[1].wlan[0].radio transmissionState:vector ETV
attr interpolationmode sample-hold
attr source transmissionStateChanged
attr title "Radio transmission state, vector"
vector 22 Scenario.node[0].wlan[0].mac rcvdPkFromLL:vector(packetBytes) ETV
attr interpolationmode none
attr source packetReceivedFromLower
attr title "packets received from lower layer, vector(packetBytes)"
vector 23 Scenario.node[0].wlan[0].mac passedUpPk:vector(packetBytes) ETV
attr interpolationmode none
attr source packetSentToUpper
attr title "packets passed to higher layer, vector(packetBytes)"
vector 24 Scenario.node[1].wlan[0].mac rcvdPkFromLL:vector(packetBytes) ETV
attr interpolationmode none
attr source packetReceivedFromLower
attr title "packets received from lower layer, vector(packetBytes)"
vector 25 Scenario.node[1].wlan[0].mac passedUpPk:vector(packetBytes) ETV
attr interpolationmode none
attr source packetSentToUpper
attr title "packets passed to higher layer, vector(packetBytes)"
vector 26 Scenario.node[2].wlan[0].radio radioMode:vector ETV
attr interpolationmode sample-hold
attr source radioModeChanged
attr title "Radio mode, vector"
vector 27 Scenario.node[2].wlan[0].radio radioChannel:vector ETV
attr interpolationmode sample-hold
attr source radioChannelChanged
attr title "Radio channel, vector"
vector 28 Scenario.node[2].wlan[0].radio receptionState:vector ETV
attr interpolationmode sample-hold
attr source receptionStateChanged
attr title "Radio reception state, vector"
vector 29 Scenario.node[2].wlan[0].mac.dcf.channelAccess.contention state:vector ETV
attr interpolationmode none
attr source stateChanged
attr title "contention state, vector"
vector 30 Scenario.node[2].wlan[0].mac.hcf.edca.edcaf[0].contention state:vector ETV
attr interpolationmode none
attr source stateChanged
attr title "contention state, vector"
vector 31 Scenario.node[2].wlan[0].mac.hcf.edca.edcaf[1].contention state:vector ETV
attr interpolationmode none
attr source stateChanged
attr title "contention state, vector"
vector 32 Scenario.node[2].wlan[0].mac.hcf.edca.edcaf[2].contention state:vector ETV
attr interpolationmode none
attr source stateChanged
attr title "contention state, vector"
vector 33 Scenario.node[2].wlan[0].mac.hcf.edca.edcaf[3].contention state:vector ETV
attr interpolationmode none
attr source stateChanged
attr title "contention state, vector"
vector 34 Scenario.node[2].wlan[0].mac rcvdPkFromLL:vector(packetBytes) ETV
attr interpolationmode none
attr source packetReceivedFromLower
attr title "packets received from lower layer, vector(packetBytes)"
vector 35 Scenario.node[2].wlan[0].mac passedUpPk:vector(packetBytes) ETV
attr interpolationmode none
attr source packetSentToUpper
attr title "packets passed to higher layer, vector(packetBytes)"
vector 36 Scenario.node[2].wlan[0].mac rcvdPkFromHL:vector(packetBytes) ETV
attr interpolationmode none
attr source packetReceivedFromUpper
attr title "packets received from higher layer, vector(packetBytes)"
vector 37 Scenario.node[2].wlan[0].mac sentDownPk:vector(packetBytes) ETV
attr interpolationmode none
attr source packetSentToLower
attr title "packets sent to lower layer, vector(packetBytes)"
vector 38 Scenario.node[2].wlan[0].radio transmissionState:vector ETV
attr interpolationmode sample-hold
attr source transmissionStateChanged
attr title "Radio transmission state, vector"
vector 39 Scenario.node[3].wlan[0].radio radioMode:vector ETV
attr interpolationmode sample-hold
attr source radioModeChanged
attr title "Radio mode, vector"
vector 40 Scenario.node[3].wlan[0].radio radioChannel:vector ETV
attr interpolationmode sample-hold
attr source radioChannelChanged
attr title "Radio channel, vector"
vector 41 Scenario.node[3].wlan[0].radio receptionState:vector ETV
attr interpolationmode sample-hold
attr source receptionStateChanged
attr title "Radio reception state, vector"
vector 42 Scenario.node[3].wlan[0].mac.dcf.channelAccess.contention state:vector ETV
attr interpolationmode none
attr source stateChanged
attr title "contention state, vector"
vector 43 Scenario.node[3].wlan[0].mac.hcf.edca.edcaf[0].contention state:vector ETV
attr interpolationmode none
attr source stateChanged
attr title "contention state, vector"
vector 44 Scenario.node[3].wlan[0].mac.hcf.edca.edcaf[1].contention state:vector ETV
attr interpolationmode none
attr source stateChanged
attr title "contention state, vector"
vector 45 Scenario.node[3].wlan[0].mac.hcf.edca.edcaf[2].contention state:vector ETV
attr interpolationmode none
attr source stateChanged
attr title "contention state, vector"
vector 46 Scenario.node[3].wlan[0].mac.hcf.edca.edcaf[3].contention state:vector ETV
attr interpolationmode none
attr source stateChanged
attr title "contention state, vector"
vector 47 Scenario.node[3].wlan[0].mac rcvdPkFromLL:vector(packetBytes) ETV
attr interpolationmode none
attr source packetReceivedFromLower
attr title "packets received from lower layer, vector(packetBytes)"
vector 48 Scenario.node[3].wlan[0].mac passedUpPk:vector(packetBytes) ETV
attr interpolationmode none
attr source packetSentToUpper
attr title "packets passed to higher layer, vector(packetBytes)"
vector 49 Scenario.node[3].wlan[0].mac rcvdPkFromHL:vector(packetBytes) ETV
attr interpolationmode none
attr source packetReceivedFromUpper
attr title "packets received from higher layer, vector(packetBytes)"
vector 50 Scenario.node[3].wlan[0].mac sentDownPk:vector(packetBytes) ETV
attr interpolationmode none
attr source packetSentToLower
attr title "packets sent to lower layer, vector(packetBytes)"
vector 51 Scenario.node[3].wlan[0].radio transmissionState:vector ETV
attr interpolationmode sample-hold
attr source transmissionStateChanged
attr title "Radio transmission state, vector"
vector 52 Scenario.node[4].wlan[0].radio radioMode:vector ETV
attr interpolationmode sample-hold
attr source radioModeChanged
attr title "Radio mode, vector"
vector 53 Scenario.node[4].wlan[0].radio radioChannel:vector ETV
attr interpolationmode sample-hold
attr source radioChannelChanged
attr title "Radio channel, vector"
vector 54 Scenario.node[4].wlan[0].radio receptionState:vector ETV
attr interpolationmode sample-hold
attr source receptionStateChanged
attr title "Radio reception state, vector"
vector 55 Scenario.node[4].wlan[0].mac.dcf.channelAccess.contention state:vector ETV
attr interpolationmode none
attr source stateChanged
attr title "contention state, vector"
vector 56 Scenario.node[4].wlan[0].mac.hcf.edca.edcaf[0].contention state:vector ETV
attr interpolationmode none
attr source stateChanged
attr title "contention state, vector"
vector 57 Scenario.node[4].wlan[0].mac.hcf.edca.edcaf[1].contention state:vector ETV
attr interpolationmode none
attr source stateChanged
attr title "contention state, vector"
vector 58 Scenario.node[4].wlan[0].mac.hcf.edca.edcaf[2].contention state:vector ETV
attr interpolationmode none
attr source stateChanged
attr title "contention state, vector"
vector 59 Scenario.node[4].wlan[0].mac.hcf.edca.edcaf[3].contention state:vector ETV
attr interpolationmode none
attr source stateChanged
attr title "contention state, vector"
vector 60 Scenario.node[4].wlan[0].mac rcvdPkFromLL:vector(packetBytes) ETV
attr interpolationmode none
attr source packetReceivedFromLower
attr title "packets received from lower layer, vector(packetBytes)"
vector 61 Scenario.node[4].wlan[0].mac passedUpPk:vector(packetBytes) ETV
attr interpolationmode none
attr source packetSentToUpper
attr title "packets passed to higher layer, vector(packetBytes)"
vector 62 Scenario.node[4].wlan[0].mac rcvdPkFromHL:vector(packetBytes) ETV
attr interpolationmode none
attr source packetReceivedFromUpper
attr title "packets received from higher layer, vector(packetBytes)"
vector 63 Scenario.node[4].wlan[0].mac sentDownPk:vector(packetBytes) ETV
attr interpolationmode none
attr source packetSentToLower
attr title "packets sent to lower layer, vector(packetBytes)"
vector 64 Scenario.node[4].wlan[0].radio transmissionState:vector ETV
attr interpolationmode sample-hold
attr source transmissionStateChanged
attr title "Radio transmission state, vector"
0	2	0.001	0
0	2	0.001	2
0	51	0.042702199844	3
0	55	0.043080199844	2
0	161	0.142702199844	3
0	165	0.143080199844	2
0	271	0.242702199844	3
0	275	0.243080199844	2
0	381	0.342702199844	3
0	385	0.343080199844	2
0	491	0.442702199844	3
0	495	0.443080199844	2
0	601	0.542702199844	3
0	605	0.543080199844	2
0	711	0.642702199844	3
0	715	0.643080199844	2
0	821	0.742702199844	3
0	825	0.743080199844	2
0	931	0.842702199844	3
0	935	0.843080199844	2
0	1041	0.942702199844	3
0	1045	0.943080199844	2
0	1151	1.042702199844	3
0	1155	1.043080199844	2
0	1261	1.142702199844	3
0	1265	1.143080199844	2
0	1371	1.242702199844	3
0	1375	1.243080199844	2
0	1481	1.342702199844	3
0	1485	1.343080199844	2
0	1591	1.442702199844	3
0	1595	1.443080199844	2
0	1701	1.542702199844	3
0	1705	1.543080199844	2
0	1811	1.642702199844	3
0	1815	1.643080199844	2
0	1921	1.742702199844	3
0	1925	1.743080199844	2
0	2031	1.842702199844	3
0	2035	1.843080199844	2
0	2141	1.942702199844	3
0	2145	1.943080199844	2
0	2267	2.042702199844	3
0	2272	2.043080199844	2
0	2395	2.142702199844	3
0	2400	2.143080199844	2
0	2523	2.242702199844	3
0	2528	2.243080199844	2
0	2651	2.342702199844	3
0	2656	2.343080199844	2
0	2779	2.442702199844	3
0	2784	2.443080199844	2
0	2907	2.542702199844	3
0	2912	2.543080199844	2
0	3035	2.642702199844	3
0	3040	2.643080199844	2
0	3163	2.742702199844	3
0	3168	2.743080199844	2
0	3291	2.842702199844	3
0	3296	2.843080199844	2
0	3419	2.942702199844	3
0	3424	2.943080199844	2
0	3547	3.042702199844	3
0	3552	3.043080199844	2
0	3675	3.142702199844	3
0	3680	3.143080199844	2
0	3803	3.242702199844	3
0	3808	3.243080199844	2
0	3931	3.342702199844	3
0	3936	3.343080199844	2
0	4059	3.442702199844	3
0	4064	3.443080199844	2
0	4187	3.542702199844	3
0	4192	3.543080199844	2
0	4315	3.642702199844	3
0	4320	3.643080199844	2
0	4443	3.742702199844	3
0	4448	3.743080199844	2
0	4571	3.842702199844	3
0	4576	3.843080199844	2
0	4699	3.942702199844	3
0	4704	3.943080199844	2
0	4833	4.042702199844	3
0	4839	4.043080199844	2
0	4987	4.142702199844	3
0	4993	4.143080199844	2
0	5141	4.242702199844	3
0	5147	4.243080199844	2
0	5295	4.342702199844	3
0	5301	4.343080199844	2
0	5449	4.442702199844	3
0	5455	4.443080199844	2
0	5603	4.542702199844	3
0	5609	4.543080199844	2
0	5757	4.642702199844	3
0	5763	4.643080199844	2
0	5911	4.742702199844	3
0	5917	4.743080199844	2
0	6065	4.842702199844	3
0	6071	4.843080199844	2
0	6219	4.942702199844	3
0	6225	4.943080199844	2
0	6373	5.042702199844	3
0	6379	5.043080199844	2
0	6527	5.142702199844	3
0	6533	5.143080199844	2
0	6681	5.242702199844	3
0	6687	5.243080199844	2
0	6835	5.342702199844	3
0	6841	5.343080199844	2
0	6989	5.442702199844	3
0	6995	5.443080199844	2
0	7143	5.542702199844	3
0	7149	5.543080199844	2
0	7297	5.642702199844	3
0	7303	5.643080199844	2
0	7451	5.742702199844	3
0	7457	5.743080199844	2
0	7605	5.842702199844	3
0	7611	5.843080199844	2
0	7759	5.942702199844	3
0	7765	5.943080199844	2
0	7940	6.042702199844	3
0	7947	6.043080199844	2
0	8128	6.142702199844	3
0	8135	6.143080199844	2
0	8316	6.242702199844	3
0	8323	6.243080199844	2
0	8504	6.342702199844	3
0	8511	6.343080199844	2
0	8692	6.442702199844	3
0	8699	6.443080199844	2
0	8880	6.542702199844	3
0	8887	6.543080199844	2
0	9068	6.642702199844	3
0	9075	6.643080199844	2
0	9256	6.742702199844	3
0	9263	6.743080199844	2
0	9444	6.842702199844	3
0	9451	6.843080199844	2
0	9632	6.942702199844	3
0	9639	6.943080199844	2
0	9820	7.042702199844	3
0	9827	7.043080199844	2
0	10008	7.142702199844	3
0	10015	7.143080199844	2
0	10196	7.242702199844	3
0	10203	7.243080199844	2
0	10384	7.342702199844	3
0	10391	7.343080199844	2
0	10572	7.442702199844	3
0	10579	7.443080199844	2
0	10760	7.542702199844	3
0	10767	7.543080199844	2
0	10948	7.642702199844	3
0	10955	7.643080199844	2
0	11136	7.742702199844	3
0	11143	7.743080199844	2
0	11324	7.842702199844	3
0	11331	7.843080199844	2
0	11512	7.942702199844	3
0	11519	7.943080199844	2
0	11710	8.042702199844	3
0	11718	8.043080199844	2
0	11940	8.142702199844	3
0	11948	8.143080199844	2
0	12170	8.242702199844	3
0	12178	8.243080199844	2
0	12398	8.342702199844	3
0	12406	8.343080199844	2
0	12628	8.442702199844	3
0	12636	8.443080199844	2
0	12858	8.542702199844	3
0	12866	8.543080199844	2
0	13088	8.642702199844	3
0	13096	8.643080199844	2
0	13318	8.742702199844	3
0	13326	8.743080199844	2
0	13548	8.842702199844	3
0	13556	8.843080199844	2
0	13778	8.942702199844	3
0	13786	8.943080199844	2
0	14008	9.042702199844	3
0	14016	9.043080199844	2
0	14238	9.142702199844	3
0	14246	9.143080199844	2
0	14468	9.242702199844	3
0	14476	9.243080199844	2
0	14698	9.342702199844	3
0	14706	9.343080199844	2
1	2	0.001	0
2	2	0.001	1
2	51	0.042702199844	0
2	55	0.043080199844	1
2	161	0.142702199844	0
2	165	0.143080199844	1
2	271	0.242702199844	0
2	275	0.243080199844	1
2	381	0.342702199844	0
2	385	0.343080199844	1
2	491	0.442702199844	0
2	495	0.443080199844	1
2	601	0.542702199844	0
2	605	0.543080199844	1
2	711	0.642702199844	0
2	715	0.643080199844	1
2	821	0.742702199844	0
2	825	0.743080199844	1
2	931	0.842702199844	0
2	935	0.843080199844	1
2	1041	0.942702199844	0
2	1045	0.943080199844	1
2	1151	1.042702199844	0
2	1155	1.043080199844	1
2	1261	1.142702199844	0
2	1265	1.143080199844	1
2	1371	1.242702199844	0
2	1375	1.243080199844	1
2	1481	1.342702199844	0
2	1485	1.343080199844	1
2	1591	1.442702199844	0
2	1595	1.443080199844	1
2	1701	1.542702199844	0
2	1705	1.543080199844	1
2	1811	1.642702199844	0
2	1815	1.643080199844	1
2	1921	1.742702199844	0
2	1925	1.743080199844	1
2	2031	1.842702199844	0
2	2035	1.843080199844	1
2	2141	1.942702199844	0
2	2145	1.943080199844	1
2	2244	2.031327418012	3
2	2247	2.031705418012	1
2	2267	2.042702199844	0
2	2272	2.043080199844	1
2	2372	2.131327418012	3
2	2375	2.131705418012	1
2	2395	2.142702199844	0
2	2400	2.143080199844	1
2	2500	2.231327418012	3
2	2503	2.231705418012	1
2	2523	2.242702199844	0
2	2528	2.243080199844	1
2	2628	2.331327418012	3
2	2631	2.331705418012	1
2	2651	2.342702199844	0
2	2656	2.343080199844	1
2	2756	2.431327418012	3
2	2759	2.431705418012	1
2	2779	2.442702199844	0
2	2784	2.443080199844	1
2	2884	2.531327418012	3
2	2887	2.531705418012	1
2	2907	2.542702199844	0
2	2912	2.543080199844	1
2	3012	2.631327418012	3
2	3015	2.631705418012	1
2	3035	2.642702199844	0
2	3040	2.643080199844	1
2	3140	2.731327418012	3
2	3143	2.731705418012	1
2	3163	2.742702199844	0
2	3168	2.743080199844	1
2	3268	2.831327418012	3
2	3271	2.831705418012	1
2	3291	2.842702199844	0
2	3296	2.843080199844	1
2	3396	2.931327418012	3
2	3399	2.931705418012	1
2	3419	2.942702199844	0
2	3424	2.943080199844	1
2	3524	3.031327418012	3
2	3527	3.031705418012	1
2	3547	3.042702199844	0
2	3552	3.043080199844	1
2	3652	3.131327418012	3
2	3655	3.131705418012	1
2	3675	3.142702199844	0
2	3680	3.143080199844	1
2	3780	3.231327418012	3
2	3783	3.231705418012	1
2	3803	3.242702199844	0
2	3808	3.243080199844	1
2	3908	3.331327418012	3
2	3911	3.331705418012	1
2	3931	3.342702199844	0
2	3936	3.343080199844	1
2	4036	3.431327418012	3
2	4039	3.431705418012	1
2	4059	3.442702199844	0
2	4064	3.443080199844	1
2	4164	3.531327418012	3
2	4167	3.531705418012	1
2	4187	3.542702199844	0
2	4192	3.543080199844	1
2	4292	3.631327418012	3
2	4295	3.631705418012	1
2	4315	3.642702199844	0
2	4320	3.643080199844	1
2	4420	3.731327418012	3
2	4423	3.731705418012	1
2	4443	3.742702199844	0
2	4448	3.743080199844	1
2	4548	3.831327418012	3
2	4551	3.831705418012	1
2	4571	3.842702199844	0
2	4576	3.843080199844	1
2	4676	3.931327418012	3
2	4679	3.931705418012	1
2	4699	3.942702199844	0
2	4704	3.943080199844	1
2	4806	4.031327418012	3
2	4810	4.031705418012	1
2	4833	4.042702199844	0
2	4839	4.043080199844	1
2	4879	4.067883686479	3
2	4886	4.068261686479	1
2	4960	4.131327418012	3
2	4964	4.131705418012	1
2	4987	4.142702199844	0
2	4993	4.143080199844	1
2	5033	4.167883686479	3
2	5040	4.168261686479	1
2	5114	4.231327418012	3
2	5118	4.231705418012	1
2	5141	4.242702199844	0
2	5147	4.243080199844	1
2	5187	4.267883686479	3
2	5194	4.268261686479	1
2	5268	4.331327418012	3
2	5272	4.331705418012	1
2	5295	4.342702199844	0
2	5301	4.343080199844	1
2	5341	4.367883686479	3
2	5348	4.368261686479	1
2	5422	4.431327418012	3
2	5426	4.431705418012	1
2	5449	4.442702199844	0
2	5455	4.443080199844	1
2	5495	4.467883686479	3
2	5502	4.468261686479	1
2	5576	4.531327418012	3
2	5580	4.531705418012	1
2	5603	4.542702199844	0
2	5609	4.543080199844	1
2	5649	4.567883686479	3
2	5656	4.568261686479	1
2	5730	4.631327418012	3
2	5734	4.631705418012	1
2	5757	4.642702199844	0
2	5763	4.643080199844	1
2	5803	4.667883686479	3
2	5810	4.668261686479	1
2	5884	4.731327418012	3
2	5888	4.731705418012	1
2	5911	4.742702199844	0
2	5917	4.743080199844	1
2	5957	4.767883686479	3
2	5964	4.768261686479	1
2	6038	4.831327418012	3
2	6042	4.831705418012	1
2	6065	4.842702199844	0
2	6071	4.843080199844	1
2	6111	4.867883686479	3
2	6118	4.868261686479	1
2	6192	4.931327418012	3
2	6196	4.931705418012	1
2	6219	4.942702199844	0
2	6225	4.943080199844	1
2	6265	4.967883686479	3
2	6272	4.968261686479	1
2	6346	5.031327418012	3
2	6350	5.031705418012	1
2	6373	5.042702199844	0
2	6379	5.043080199844	1
2	6419	5.067883686479	3
2	6426	5.068261686479	1
2	6500	5.131327418012	3
2	6504	5.131705418012	1
2	6527	5.142702199844	0
2	6533	5.143080199844	1
2	6573	5.167883686479	3
2	6580	5.168261686479	1
2	6654	5.231327418012	3
2	6658	5.231705418012	1
2	6681	5.242702199844	0
2	6687	5.243080199844	1
2	6727	5.267883686479	3
2	6734	5.268261686479	1
2	6808	5.331327418012	3
2	6812	5.331705418012	1
2	6835	5.342702199844	0
2	6841	5.343080199844	1
2	6881	5.367883686479	3
2	6888	5.368261686479	1
2	6962	5.431327418012	3
2	6966	5.431705418012	1
2	6989	5.442702199844	0
2	6995	5.443080199844	1
2	7035	5.467883686479	3
2	7042	5.468261686479	1
2	7116	5.531327418012	3
2	7120	5.531705418012	1
2	7143	5.542702199844	0
2	7149	5.543080199844	1
2	7189	5.567883686479	3
2	7196	5.568261686479	1
2	7270	5.631327418012	3
2	7274	5.631705418012	1
2	7297	5.642702199844	0
2	7303	5.643080199844	1
2	7343	5.667883686479	3
2	7350	5.668261686479	1
2	7424	5.731327418012	3
2	7428	5.731705418012	1
2	7451	5.742702199844	0
2	7457	5.743080199844	1
2	7497	5.767883686479	3
2	7504	5.768261686479	1
2	7578	5.831327418012	3
2	7582	5.831705418012	1
2	7605	5.842702199844	0
2	7611	5.843080199844	1
2	7651	5.867883686479	3
2	7658	5.868261686479	1
2	7732	5.931327418012	3
2	7736	5.931705418012	1
2	7759	5.942702199844	0
2	7765	5.943080199844	1
2	7805	5.967883686479	3
2	7812	5.968261686479	1
2	7888	6.031327418012	3
2	7893	6.031705418012	1
2	7916	6.036190645091	3
2	7925	6.036568645091	1
2	7940	6.042702199844	0
2	7947	6.043080199844	1
2	7992	6.067883686479	3
2	8002	6.068261686479	1
2	8076	6.131327418012	3
2	8081	6.131705418012	1
2	8104	6.136190645091	3
2	8113	6.136568645091	1
2	8128	6.142702199844	0
2	8135	6.143080199844	1
2	8180	6.167883686479	3
2	8190	6.168261686479	1
2	8264	6.231327418012	3
2	8269	6.231705418012	1
2	8292	6.236190645091	3
2	8301	6.236568645091	1
2	8316	6.242702199844	0
2	8323	6.243080199844	1
2	8368	6.267883686479	3
2	8378	6.268261686479	1
2	8452	6.331327418012	3
2	8457	6.331705418012	1
2	8480	6.336190645091	3
2	8489	6.336568645091	1
2	8504	6.342702199844	0
2	8511	6.343080199844	1
2	8556	6.367883686479	3
2	8566	6.368261686479	1
2	8640	6.431327418012	3
2	8645	6.431705418012	1
2	8668	6.436190645091	3
2	8677	6.436568645091	1
2	8692	6.442702199844	0
2	8699	6.443080199844	1
2	8744	6.467883686479	3
2	8754	6.468261686479	1
2	8828	6.531327418012	3
2	8833	6.531705418012	1
2	8856	6.536190645091	3
2	8865	6.536568645091	1
2	8880	6.542702199844	0
2	8887	6.543080199844	1
2	8932	6.567883686479	3
2	8942	6.568261686479	1
2	9016	6.631327418012	3
2	9021	6.631705418012	1
2	9044	6.636190645091	3
2	9053	6.636568645091	1
2	9068	6.642702199844	0
2	9075	6.643080199844	1
2	9120	6.667883686479	3
2	9130	6.668261686479	1
2	9204	6.731327418012	3
2	9209	6.731705418012	1
2	9232	6.736190645091	3
2	9241	6.736568645091	1
2	9256	6.742702199844	0
2	9263	6.743080199844	1
2	9308	6.767883686479	3
2	9318	6.768261686479	1
2	9392	6.831327418012	3
2	9397	6.831705418012	1
2	9420	6.836190645091	3
2	9429	6.836568645091	1
2	9444	6.842702199844	0
2	9451	6.843080199844	1
2	9496	6.867883686479	3
2	9506	6.868261686479	1
2	9580	6.931327418012	3
2	9585	6.931705418012	1
2	9608	6.936190645091	3
2	9617	6.936568645091	1
2	9632	6.942702199844	0
2	9639	6.943080199844	1
2	9684	6.967883686479	3
2	9694	6.968261686479	1
2	9768	7.031327418012	3
2	9773	7.031705418012	1
2	9796	7.036190645091	3
2	9805	7.036568645091	1
2	9820	7.042702199844	0
2	9827	7.043080199844	1
2	9872	7.067883686479	3
2	9882	7.068261686479	1
2	9956	7.131327418012	3
2	9961	7.131705418012	1
2	9984	7.136190645091	3
2	9993	7.136568645091	1
2	10008	7.142702199844	0
2	10015	7.143080199844	1
2	10060	7.167883686479	3
2	10070	7.168261686479	1
2	10144	7.231327418012	3
2	10149	7.231705418012	1
2	10172	7.236190645091	3
2	10181	7.236568645091	1
2	10196	7.242702199844	0
2	10203	7.243080199844	1
2	10248	7.267883686479	3
2	10258	7.268261686479	1
2	10332	7.331327418012	3
2	10337	7.331705418012	1
2	10360	7.336190645091	3
2	10369	7.336568645091	1
2	10384	7.342702199844	0
2	10391	7.343080199844	1
2	10436	7.367883686479	3
2	10446	7.368261686479	1
2	10520	7.431327418012	3
2	10525	7.431705418012	1
2	10548	7.436190645091	3
2	10557	7.436568645091	1
2	10572	7.442702199844	0
2	10579	7.443080199844	1
2	10624	7.467883686479	3
2	10634	7.468261686479	1
2	10708	7.531327418012	3
2	10713	7.531705418012	1
2	10736	7.536190645091	3
2	10745	7.536568645091	1
2	10760	7.542702199844	0
2	10767	7.543080199844	1
2	10812	7.567883686479	3
2	10822	7.568261686479	1
2	10896	7.631327418012	3
2	10901	7.631705418012	1
2	10924	7.636190645091	3
2	10933	7.636568645091	1
2	10948	7.642702199844	0
2	10955	7.643080199844	1
2	11000	7.667883686479	3
2	11010	7.668261686479	1
2	11084	7.731327418012	3
2	11089	7.731705418012	1
2	11112	7.736190645091	3
2	11121	7.736568645091	1
2	11136	7.742702199844	0
2	11143	7.743080199844	1
2	11188	7.767883686479	3
2	11198	7.768261686479	1
2	11272	7.831327418012	3
2	11277	7.831705418012	1
2	11300	7.836190645091	3
2	11309	7.836568645091	1
2	11324	7.842702199844	0
2	11331	7.843080199844	1
2	11376	7.867883686479	3
2	11386	7.868261686479	1
2	11460	7.931327418012	3
2	11465	7.931705418012	1
2	11488	7.936190645091	3
2	11497	7.936568645091	1
2	11512	7.942702199844	0
2	11519	7.943080199844	1
2	11564	7.967883686479	3
2	11574	7.968261686479	1
2	11650	8.031327418012	3
2	11656	8.031705418012	1
2	11683	8.036190645091	3
2	11695	8.036568645091	1
2	11710	8.042702199844	0
2	11718	8.043080199844	1
2	11766	8.067883686479	3
2	11777	8.068261686479	1
2	11793	8.068841591644	3
2	11806	8.069219591644	1
2	11880	8.131327418012	3
2	11886	8.131705418012	1
2	11913	8.136190645091	3
2	11925	8.136568645091	1
2	11940	8.142702199844	0
2	11948	8.143080199844	1
2	11996	8.167883686479	3
2	12007	8.168261686479	1
2	12023	8.168841591644	3
2	12036	8.169219591644	1
2	12110	8.231327418012	3
2	12116	8.231705418012	1
2	12143	8.236190645091	3
2	12155	8.236568645091	1
2	12170	8.242702199844	0
2	12178	8.243080199844	1
2	12226	8.267883686479	3
2	12237	8.268261686479	1
2	12338	8.331327418012	3
2	12344	8.331705418012	1
2	12371	8.336190645091	3
2	12383	8.336568645091	1
2	12398	8.342702199844	0
2	12406	8.343080199844	1
2	12454	8.367883686479	3
2	12465	8.368261686479	1
2	12481	8.368841591644	3
2	12494	8.369219591644	1
2	12568	8.431327418012	3
2	12574	8.431705418012	1
2	12601	8.436190645091	3
2	12613	8.436568645091	1
2	12628	8.442702199844	0
2	12636	8.443080199844	1
2	12684	8.467883686479	3
2	12695	8.468261686479	1
2	12711	8.468841591644	3
2	12724	8.469219591644	1
2	12798	8.531327418012	3
2	12804	8.531705418012	1
2	12831	8.536190645091	3
2	12843	8.536568645091	1
2	12858	8.542702199844	0
2	12866	8.543080199844	1
2	12914	8.567883686479	3
2	12925	8.568261686479	1
2	12941	8.568841591644	3
2	12954	8.569219591644	1
2	13028	8.631327418012	3
2	13034	8.631705418012	1
2	13061	8.636190645091	3
2	13073	8.636568645091	1
2	13088	8.642702199844	0
2	13096	8.643080199844	1
2	13144	8.667883686479	3
2	13155	8.668261686479	1
2	13171	8.668841591644	3
2	13184	8.669219591644	1
2	13258	8.731327418012	3
2	13264	8.731705418012	1
2	13291	8.736190645091	3
2	13303	8.736568645091	1
2	13318	8.742702199844	0
2	13326	8.743080199844	1
2	13374	8.767883686479	3
2	13385	8.768261686479	1
2	13401	8.768841591644	3
2	13414	8.769219591644	1
2	13488	8.831327418012	3
2	13494	8.831705418012	1
2	13521	8.836190645091	3
2	13533	8.836568645091	1
2	13548	8.842702199844	0
2	13556	8.843080199844	1
2	13604	8.867883686479	3
2	13615	8.868261686479	1
2	13631	8.868841591644	3
2	13644	8.869219591644	1
2	13718	8.931327418012	3
2	13724	8.931705418012	1
2	13751	8.936190645091	3
2	13763	8.936568645091	1
2	13778	8.942702199844	0
2	13786	8.943080199844	1
2	13834	8.967883686479	3
2	13845	8.968261686479	1
2	13861	8.968841591644	3
2	13874	8.969219591644	1
2	13948	9.031327418012	3
2	13954	9.031705418012	1
2	13981	9.036190645091	3
2	13993	9.036568645091	1
2	14008	9.042702199844	0
2	14016	9.043080199844	1
2	14064	9.067883686479	3
2	14075	9.068261686479	1
2	14091	9.068841591644	3
2	14104	9.069219591644	1
2	14178	9.131327418012	3
2	14184	9.131705418012	1
2	14211	9.136190645091	3
2	14223	9.136568645091	1
2	14238	9.142702199844	0
2	14246	9.143080199844	1
2	14294	9.167883686479	3
2	14305	9.168261686479	1
2	14321	9.168841591644	3
2	14334	9.169219591644	1
2	14408	9.231327418012	3
2	14414	9.231705418012	1
2	14441	9.236190645091	3
2	14453	9.236568645091	1
2	14468	9.242702199844	0
2	14476	9.243080199844	1
2	14524	9.267883686479	3
2	14535	9.268261686479	1
2	14551	9.268841591644	3
2	14564	9.269219591644	1
2	14638	9.331327418012	3
2	14644	9.331705418012	1
2	14671	9.336190645091	3
2	14683	9.336568645091	1
2	14698	9.342702199844	0
2	14706	9.343080199844	1
2	14754	9.367883686479	3
2	14765	9.368261686479	1
3	2	0.001	0
3	2	0.001	0
3	47	0.042702199844	0
3	47	0.042702199844	2
3	48	0.042702199844	2
3	48	0.042702199844	0
3	51	0.042702199844	0
3	51	0.042702199844	0
3	55	0.043080199844	0
3	55	0.043080199844	0
3	157	0.142702199844	0
3	157	0.142702199844	2
3	158	0.142702199844	2
3	158	0.142702199844	0
3	161	0.142702199844	0
3	161	0.142702199844	0
3	165	0.143080199844	0
3	165	0.143080199844	0
3	267	0.242702199844	0
3	267	0.242702199844	2
3	268	0.242702199844	2
3	268	0.242702199844	0
3	271	0.242702199844	0
3	271	0.242702199844	0
3	275	0.243080199844	0
3	275	0.243080199844	0
3	377	0.342702199844	0
3	377	0.342702199844	2
3	378	0.342702199844	2
3	378	0.342702199844	0
3	381	0.342702199844	0
3	381	0.342702199844	0
3	385	0.343080199844	0
3	385	0.343080199844	0
3	487	0.442702199844	0
3	487	0.442702199844	2
3	488	0.442702199844	2
3	488	0.442702199844	0
3	491	0.442702199844	0
3	491	0.442702199844	0
3	495	0.443080199844	0
3	495	0.443080199844	0
3	597	0.542702199844	0
3	597	0.542702199844	2
3	598	0.542702199844	2
3	598	0.542702199844	0
3	601	0.542702199844	0
3	601	0.542702199844	0
3	605	0.543080199844	0
3	605	0.543080199844	0
3	707	0.642702199844	0
3	707	0.642702199844	2
3	708	0.642702199844	2
3	708	0.642702199844	0
3	711	0.642702199844	0
3	711	0.642702199844	0
3	715	0.643080199844	0
3	715	0.643080199844	0
3	817	0.742702199844	0
3	817	0.742702199844	2
3	818	0.742702199844	2
3	818	0.742702199844	0
3	821	0.742702199844	0
3	821	0.742702199844	0
3	825	0.743080199844	0
3	825	0.743080199844	0
3	927	0.842702199844	0
3	927	0.842702199844	2
3	928	0.842702199844	2
3	928	0.842702199844	0
3	931	0.842702199844	0
3	931	0.842702199844	0
3	935	0.843080199844	0
3	935	0.843080199844	0
3	1037	0.942702199844	0
3	1037	0.942702199844	2
3	1038	0.942702199844	2
3	1038	0.942702199844	0
3	1041	0.942702199844	0
3	1041	0.942702199844	0
3	1045	0.943080199844	0
3	1045	0.943080199844	0
3	1147	1.042702199844	0
3	1147	1.042702199844	2
3	1148	1.042702199844	2
3	1148	1.042702199844	0
3	1151	1.042702199844	0
3	1151	1.042702199844	0
3	1155	1.043080199844	0
3	1155	1.043080199844	0
3	1257	1.142702199844	0
3	1257	1.142702199844	2
3	1258	1.142702199844	2
3	1258	1.142702199844	0
3	1261	1.142702199844	0
3	1261	1.142702199844	0
3	1265	1.143080199844	0
3	1265	1.143080199844	0
3	1367	1.242702199844	0
3	1367	1.242702199844	2
3	1368	1.242702199844	2
3	1368	1.242702199844	0
3	1371	1.242702199844	0
3	1371	1.242702199844	0
3	1375	1.243080199844	0
3	1375	1.243080199844	0
3	1477	1.342702199844	0
3	1477	1.342702199844	2
3	1478	1.342702199844	2
3	1478	1.342702199844	0
3	1481	1.342702199844	0
3	1481	1.342702199844	0
3	1485	1.343080199844	0
3	1485	1.343080199844	0
3	1587	1.442702199844	0
3	1587	1.442702199844	2
3	1588	1.442702199844	2
3	1588	1.442702199844	0
3	1591	1.442702199844	0
3	1591	1.442702199844	0
3	1595	1.443080199844	0
3	1595	1.443080199844	0
3	1697	1.542702199844	0
3	1697	1.542702199844	2
3	1698	1.542702199844	2
3	1698	1.542702199844	0
3	1701	1.542702199844	0
3	1701	1.542702199844	0
3	1705	1.543080199844	0
3	1705	1.543080199844	0
3	1807	1.642702199844	0
3	1807	1.642702199844	2
3	1808	1.642702199844	2
3	1808	1.642702199844	0
3	1811	1.642702199844	0
3	1811	1.642702199844	0
3	1815	1.643080199844	0
3	1815	1.643080199844	0
3	1917	1.742702199844	0
3	1917	1.742702199844	2
3	1918	1.742702199844	2
3	1918	1.742702199844	0
3	1921	1.742702199844	0
3	1921	1.742702199844	0
3	1925	1.743080199844	0
3	1925	1.743080199844	0
3	2027	1.842702199844	0
3	2027	1.842702199844	2
3	2028	1.842702199844	2
3	2028	1.842702199844	0
3	2031	1.842702199844	0
3	2031	1.842702199844	0
3	2035	1.843080199844	0
3	2035	1.843080199844	0
3	2137	1.942702199844	0
3	2137	1.942702199844	2
3	2138	1.942702199844	2
3	2138	1.942702199844	0
3	2141	1.942702199844	0
3	2141	1.942702199844	0
3	2145	1.943080199844	0
3	2145	1.943080199844	0
3	2244	2.031327418012	0
3	2244	2.031327418012	0
3	2247	2.031705418012	0
3	2247	2.031705418012	0
3	2263	2.042702199844	0
3	2263	2.042702199844	2
3	2264	2.042702199844	2
3	2264	2.042702199844	0
3	2267	2.042702199844	0
3	2267	2.042702199844	0
3	2272	2.043080199844	0
3	2272	2.043080199844	0
3	2372	2.131327418012	0
3	2372	2.131327418012	0
3	2375	2.131705418012	0
3	2375	2.131705418012	0
3	2391	2.142702199844	0
3	2391	2.142702199844	2
3	2392	2.142702199844	2
3	2392	2.142702199844	0
3	2395	2.142702199844	0
3	2395	2.142702199844	0
3	2400	2.143080199844	0
3	2400	2.143080199844	0
3	2500	2.231327418012	0
3	2500	2.231327418012	0
3	2503	2.231705418012	0
3	2503	2.231705418012	0
3	2519	2.242702199844	0
3	2519	2.242702199844	2
3	2520	2.242702199844	2
3	2520	2.242702199844	0
3	2523	2.242702199844	0
3	2523	2.242702199844	0
3	2528	2.243080199844	0
3	2528	2.243080199844	0
3	2628	2.331327418012	0
3	2628	2.331327418012	0
3	2631	2.331705418012	0
3	2631	2.331705418012	0
3	2647	2.342702199844	0
3	2647	2.342702199844	2
3	2648	2.342702199844	2
3	2648	2.342702199844	0
3	2651	2.342702199844	0
3	2651	2.342702199844	0
3	2656	2.343080199844	0
3	2656	2.343080199844	0
3	2756	2.431327418012	0
3	2756	2.431327418012	0
3	2759	2.431705418012	0
3	2759	2.431705418012	0
3	2775	2.442702199844	0
3	2775	2.442702199844	2
3	2776	2.442702199844	2
3	2776	2.442702199844	0
3	2779	2.442702199844	0
3	2779	2.442702199844	0
3	2784	2.443080199844	0
3	2784	2.443080199844	0
3	2884	2.531327418012	0
3	2884	2.531327418012	0
3	2887	2.531705418012	0
3	2887	2.531705418012	0
3	2903	2.542702199844	0
3	2903	2.542702199844	2
3	2904	2.542702199844	2
3	2904	2.542702199844	0
3	2907	2.542702199844	0
3	2907	2.542702199844	0
3	2912	2.543080199844	0
3	2912	2.543080199844	0
3	3012	2.631327418012	0
3	3012	2.631327418012	0
3	3015	2.631705418012	0
3	3015	2.631705418012	0
3	3031	2.642702199844	0
3	3031	2.642702199844	2
3	3032	2.642702199844	2
3	3032	2.642702199844	0
3	3035	2.642702199844	0
3	3035	2.642702199844	0
3	3040	2.643080199844	0
3	3040	2.643080199844	0
3	3140	2.731327418012	0
3	3140	2.731327418012	0
3	3143	2.731705418012	0
3	3143	2.731705418012	0
3	3159	2.742702199844	0
3	3159	2.742702199844	2
3	3160	2.742702199844	2
3	3160	2.742702199844	0
3	3163	2.742702199844	0
3	3163	2.742702199844	0
3	3168	2.743080199844	0
3	3168	2.743080199844	0
3	3268	2.831327418012	0
3	3268	2.831327418012	0
3	3271	2.831705418012	0
3	3271	2.831705418012	0
3	3287	2.842702199844	0
3	3287	2.842702199844	2
3	3288	2.842702199844	2
3	3288	2.842702199844	0
3	3291	2.842702199844	0
3	3291	2.842702199844	0
3	3296	2.843080199844	0
3	3296	2.843080199844	0
3	3396	2.931327418012	0
3	3396	2.931327418012	0
3	3399	2.931705418012	0
3	3399	2.931705418012	0
3	3415	2.942702199844	0
3	3415	2.942702199844	2
3	3416	2.942702199844	2
3	3416	2.942702199844	0
3	3419	2.942702199844	0
3	3419	2.942702199844	0
3	3424	2.943080199844	0
3	3424	2.943080199844	0
3	3524	3.031327418012	0
3	3524	3.031327418012	0
3	3527	3.031705418012	0
3	3527	3.031705418012	0
3	3543	3.042702199844	0
3	3543	3.042702199844	2
3	3544	3.042702199844	2
3	3544	3.042702199844	0
3	3547	3.042702199844	0
3	3547	3.042702199844	0
3	3552	3.043080199844	0
3	3552	3.043080199844	0
3	3652	3.131327418012	0
3	3652	3.131327418012	0
3	3655	3.131705418012	0
3	3655	3.131705418012	0
3	3671	3.142702199844	0
3	3671	3.142702199844	2
3	3672	3.142702199844	2
3	3672	3.142702199844	0
3	3675	3.142702199844	0
3	3675	3.142702199844	0
3	3680	3.143080199844	0
3	3680	3.143080199844	0
3	3780	3.231327418012	0
3	3780	3.231327418012	0
3	3783	3.231705418012	0
3	3783	3.231705418012	0
3	3799	3.242702199844	0
3	3799	3.242702199844	2
3	3800	3.242702199844	2
3	3800	3.242702199844	0
3	3803	3.242702199844	0
3	3803	3.242702199844	0
3	3808	3.243080199844	0
3	3808	3.243080199844	0
3	3908	3.331327418012	0
3	3908	3.331327418012	0
3	3911	3.331705418012	0
3	3911	3.331705418012	0
3	3927	3.342702199844	0
3	3927	3.342702199844	2
3	3928	3.342702199844	2
3	3928	3.342702199844	0
3	3931	3.342702199844	0
3	3931	3.342702199844	0
3	3936	3.343080199844	0
3	3936	3.343080199844	0
3	4036	3.431327418012	0
3	4036	3.431327418012	0
3	4039	3.431705418012	0
3	4039	3.431705418012	0
3	4055	3.442702199844	0
3	4055	3.442702199844	2
3	4056	3.442702199844	2
3	4056	3.442702199844	0
3	4059	3.442702199844	0
3	4059	3.442702199844	0
3	4064	3.443080199844	0
3	4064	3.443080199844	0
3	4164	3.531327418012	0
3	4164	3.531327418012	0
3	4167	3.531705418012	0
3	4167	3.531705418012	0
3	4183	3.542702199844	0
3	4183	3.542702199844	2
3	4184	3.542702199844	2
3	4184	3.542702199844	0
3	4187	3.542702199844	0
3	4187	3.542702199844	0
3	4192	3.543080199844	0
3	4192	3.543080199844	0
3	4292	3.631327418012	0
3	4292	3.631327418012	0
3	4295	3.631705418012	0
3	4295	3.631705418012	0
3	4311	3.642702199844	0
3	4311	3.642702199844	2
3	4312	3.642702199844	2
3	4312	3.642702199844	0
3	4315	3.642702199844	0
3	4315	3.642702199844	0
3	4320	3.643080199844	0
3	4320	3.643080199844	0
3	4420	3.731327418012	0
3	4420	3.731327418012	0
3	4423	3.731705418012	0
3	4423	3.731705418012	0
3	4439	3.742702199844	0
3	4439	3.742702199844	2
3	4440	3.742702199844	2
3	4440	3.742702199844	0
3	4443	3.742702199844	0
3	4443	3.742702199844	0
3	4448	3.743080199844	0
3	4448	3.743080199844	0
3	4548	3.831327418012	0
3	4548	3.831327418012	0
3	4551	3.831705418012	0
3	4551	3.831705418012	0
3	4567	3.842702199844	0
3	4567	3.842702199844	2
3	4568	3.842702199844	2
3	4568	3.842702199844	0
3	4571	3.842702199844	0
3	4571	3.842702199844	0
3	4576	3.843080199844	0
3	4576	3.843080199844	0
3	4676	3.931327418012	0
3	4676	3.931327418012	0
3	4679	3.931705418012	0
3	4679	3.931705418012	0
3	4695	3.942702199844	0
3	4695	3.942702199844	2
3	4696	3.942702199844	2
3	4696	3.942702199844	0
3	4699	3.942702199844	0
3	4699	3.942702199844	0
3	4704	3.943080199844	0
3	4704	3.943080199844	0
3	4806	4.031327418012	0
3	4806	4.031327418012	0
3	4810	4.031705418012	0
3	4810	4.031705418012	0
3	4829	4.042702199844	0
3	4829	4.042702199844	2
3	4830	4.042702199844	2
3	4830	4.042702199844	0
3	4833	4.042702199844	0
3	4833	4.042702199844	0
3	4839	4.043080199844	0
3	4839	4.043080199844	0
3	4879	4.067883686479	0
3	4879	4.067883686479	0
3	4886	4.068261686479	0
3	4886	4.068261686479	0
3	4960	4.131327418012	0
3	4960	4.131327418012	0
3	4964	4.131705418012	0
3	4964	4.131705418012	0
3	4983	4.142702199844	0
3	4983	4.142702199844	2
3	4984	4.142702199844	2
3	4984	4.142702199844	0
3	4987	4.142702199844	0
3	4987	4.142702199844	0
3	4993	4.143080199844	0
3	4993	4.143080199844	0
3	5033	4.167883686479	0
3	5033	4.167883686479	0
3	5040	4.168261686479	0
3	5040	4.168261686479	0
3	5114	4.231327418012	0
3	5114	4.231327418012	0
3	5118	4.231705418012	0
3	5118	4.231705418012	0
3	5137	4.242702199844	0
3	5137	4.242702199844	2
3	5138	4.242702199844	2
3	5138	4.242702199844	0
3	5141	4.242702199844	0
3	5141	4.242702199844	0
3	5147	4.243080199844	0
3	5147	4.243080199844	0
3	5187	4.267883686479	0
3	5187	4.267883686479	0
3	5194	4.268261686479	0
3	5194	4.268261686479	0
3	5268	4.331327418012	0
3	5268	4.331327418012	0
3	5272	4.331705418012	0
3	5272	4.331705418012	0
3	5291	4.342702199844	0
3	5291	4.342702199844	2
3	5292	4.342702199844	2
3	5292	4.342702199844	0
3	5295	4.342702199844	0
3	5295	4.342702199844	0
3	5301	4.343080199844	0
3	5301	4.343080199844	0
3	5341	4.367883686479	0
3	5341	4.367883686479	0
3	5348	4.368261686479	0
3	5348	4.368261686479	0
3	5422	4.431327418012	0
3	5422	4.431327418012	0
3	5426	4.431705418012	0
3	5426	4.431705418012	0
3	5445	4.442702199844	0
3	5445	4.442702199844	2
3	5446	4.442702199844	2
3	5446	4.442702199844	0
3	5449	4.442702199844	0
3	5449	4.442702199844	0
3	5455	4.443080199844	0
3	5455	4.443080199844	0
3	5495	4.467883686479	0
3	5495	4.467883686479	0
3	5502	4.468261686479	0
3	5502	4.468261686479	0
3	5576	4.531327418012	0
3	5576	4.531327418012	0
3	5580	4.531705418012	0
3	5580	4.531705418012	0
3	5599	4.542702199844	0
3	5599	4.542702199844	2
3	5600	4.542702199844	2
3	5600	4.542702199844	0
3	5603	4.542702199844	0
3	5603	4.542702199844	0
3	5609	4.543080199844	0
3	5609	4.543080199844	0
3	5649	4.567883686479	0
3	5649	4.567883686479	0
3	5656	4.568261686479	0
3	5656	4.568261686479	0
3	5730	4.631327418012	0
3	5730	4.631327418012	0
3	5734	4.631705418012	0
3	5734	4.631705418012	0
3	5753	4.642702199844	0
3	5753	4.642702199844	2
3	5754	4.642702199844	2
3	5754	4.642702199844	0
3	5757	4.642702199844	0
3	5757	4.642702199844	0
3	5763	4.643080199844	0
3	5763	4.643080199844	0
3	5803	4.667883686479	0
3	5803	4.667883686479	0
3	5810	4.668261686479	0
3	5810	4.668261686479	0
3	5884	4.731327418012	0
3	5884	4.731327418012	0
3	5888	4.731705418012	0
3	5888	4.731705418012	0
3	5907	4.742702199844	0
3	5907	4.742702199844	2
3	5908	4.742702199844	2
3	5908	4.742702199844	0
3	5911	4.742702199844	0
3	5911	4.742702199844	0
3	5917	4.743080199844	0
3	5917	4.743080199844	0
3	5957	4.767883686479	0
3	5957	4.767883686479	0
3	5964	4.768261686479	0
3	5964	4.768261686479	0
3	6038	4.831327418012	0
3	6038	4.831327418012	0
3	6042	4.831705418012	0
3	6042	4.831705418012	0
3	6061	4.842702199844	0
3	6061	4.842702199844	2
3	6062	4.842702199844	2
3	6062	4.842702199844	0
3	6065	4.842702199844	0
3	6065	4.842702199844	0
3	6071	4.843080199844	0
3	6071	4.843080199844	0
3	6111	4.867883686479	0
3	6111	4.867883686479	0
3	6118	4.868261686479	0
3	6118	4.868261686479	0
3	6192	4.931327418012	0
3	6192	4.931327418012	0
3	6196	4.931705418012	0
3	6196	4.931705418012	0
3	6215	4.942702199844	0
3	6215	4.942702199844	2
3	6216	4.942702199844	2
3	6216	4.942702199844	0
3	6219	4.942702199844	0
3	6219	4.942702199844	0
3	6225	4.943080199844	0
3	6225	4.943080199844	0
3	6265	4.967883686479	0
3	6265	4.967883686479	0
3	6272	4.968261686479	0
3	6272	4.968261686479	0
3	6346	5.031327418012	0
3	6346	5.031327418012	0
3	6350	5.031705418012	0
3	6350	5.031705418012	0
3	6369	5.042702199844	0
3	6369	5.042702199844	2
3	6370	5.042702199844	2
3	6370	5.042702199844	0
3	6373	5.042702199844	0
3	6373	5.042702199844	0
3	6379	5.043080199844	0
3	6379	5.043080199844	0
3	6419	5.067883686479	0
3	6419	5.067883686479	0
3	6426	5.068261686479	0
3	6426	5.068261686479	0
3	6500	5.131327418012	0
3	6500	5.131327418012	0
3	6504	5.131705418012	0
3	6504	5.131705418012	0
3	6523	5.142702199844	0
3	6523	5.142702199844	2
3	6524	5.142702199844	2
3	6524	5.142702199844	0
3	6527	5.142702199844	0
3	6527	5.142702199844	0
3	6533	5.143080199844	0
3	6533	5.143080199844	0
3	6573	5.167883686479	0
3	6573	5.167883686479	0
3	6580	5.168261686479	0
3	6580	5.168261686479	0
3	6654	5.231327418012	0
3	6654	5.231327418012	0
3	6658	5.231705418012	0
3	6658	5.231705418012	0
3	6677	5.242702199844	0
3	6677	5.242702199844	2
3	6678	5.242702199844	2
3	6678	5.242702199844	0
3	6681	5.242702199844	0
3	6681	5.242702199844	0
3	6687	5.243080199844	0
3	6687	5.243080199844	0
3	6727	5.267883686479	0
3	6727	5.267883686479	0
3	6734	5.268261686479	0
3	6734	5.268261686479	0
3	6808	5.331327418012	0
3	6808	5.331327418012	0
3	6812	5.331705418012	0
3	6812	5.331705418012	0
3	6831	5.342702199844	0
3	6831	5.342702199844	2
3	6832	5.342702199844	2
3	6832	5.342702199844	0
3	6835	5.342702199844	0
3	6835	5.342702199844	0
3	6841	5.343080199844	0
3	6841	5.343080199844	0
3	6881	5.367883686479	0
3	6881	5.367883686479	0
3	6888	5.368261686479	0
3	6888	5.368261686479	0
3	6962	5.431327418012	0
3	6962	5.431327418012	0
3	6966	5.431705418012	0
3	6966	5.431705418012	0
3	6985	5.442702199844	0
3	6985	5.442702199844	2
3	6986	5.442702199844	2
3	6986	5.442702199844	0
3	6989	5.442702199844	0
3	6989	5.442702199844	0
3	6995	5.443080199844	0
3	6995	5.443080199844	0
3	7035	5.467883686479	0
3	7035	5.467883686479	0
3	7042	5.468261686479	0
3	7042	5.468261686479	0
3	7116	5.531327418012	0
3	7116	5.531327418012	0
3	7120	5.531705418012	0
3	7120	5.531705418012	0
3	7139	5.542702199844	0
3	7139	5.542702199844	2
3	7140	5.542702199844	2
3	7140	5.542702199844	0
3	7143	5.542702199844	0
3	7143	5.542702199844	0
3	7149	5.543080199844	0
3	7149	5.543080199844	0
3	7189	5.567883686479	0
3	7189	5.567883686479	0
3	7196	5.568261686479	0
3	7196	5.568261686479	0
3	7270	5.631327418012	0
3	7270	5.631327418012	0
3	7274	5.631705418012	0
3	7274	5.631705418012	0
3	7293	5.642702199844	0
3	7293	5.642702199844	2
3	7294	5.642702199844	2
3	7294	5.642702199844	0
3	7297	5.642702199844	0
3	7297	5.642702199844	0
3	7303	5.643080199844	0
3	7303	5.643080199844	0
3	7343	5.667883686479	0
3	7343	5.667883686479	0
3	7350	5.668261686479	0
3	7350	5.668261686479	0
3	7424	5.731327418012	0
3	7424	5.731327418012	0
3	7428	5.731705418012	0
3	7428	5.731705418012	0
3	7447	5.742702199844	0
3	7447	5.742702199844	2
3	7448	5.742702199844	2
3	7448	5.742702199844	0
3	7451	5.742702199844	0
3	7451	5.742702199844	0
3	7457	5.743080199844	0
3	7457	5.743080199844	0
3	7497	5.767883686479	0
3	7497	5.767883686479	0
3	7504	5.768261686479	0
3	7504	5.768261686479	0
3	7578	5.831327418012	0
3	7578	5.831327418012	0
3	7582	5.831705418012	0
3	7582	5.831705418012	0
3	7601	5.842702199844	0
3	7601	5.842702199844	2
3	7602	5.842702199844	2
3	7602	5.842702199844	0
3	7605	5.842702199844	0
3	7605	5.842702199844	0
3	7611	5.843080199844	0
3	7611	5.843080199844	0
3	7651	5.867883686479	0
3	7651	5.867883686479	0
3	7658	5.868261686479	0
3	7658	5.868261686479	0
3	7732	5.931327418012	0
3	7732	5.931327418012	0
3	7736	5.931705418012	0
3	7736	5.931705418012	0
3	7755	5.942702199844	0
3	7755	5.942702199844	2
3	7756	5.942702199844	2
3	7756	5.942702199844	0
3	7759	5.942702199844	0
3	7759	5.942702199844	0
3	7765	5.943080199844	0
3	7765	5.943080199844	0
3	7805	5.967883686479	0
3	7805	5.967883686479	0
3	7812	5.968261686479	0
3	7812	5.968261686479	0
3	7888	6.031327418012	0
3	7888	6.031327418012	0
3	7893	6.031705418012	0
3	7893	6.031705418012	0
3	7916	6.036190645091	0
3	7916	6.036190645091	0
3	7925	6.036568645091	0
3	7925	6.036568645091	0
3	7936	6.042702199844	0
3	7936	6.042702199844	2
3	7937	6.042702199844	2
3	7937	6.042702199844	0
3	7940	6.042702199844	0
3	7940	6.042702199844	0
3	7947	6.043080199844	0
3	7947	6.043080199844	0
3	7992	6.067883686479	0
3	7992	6.067883686479	0
3	8002	6.068261686479	0
3	8002	6.068261686479	0
3	8076	6.131327418012	0
3	8076	6.131327418012	0
3	8081	6.131705418012	0
3	8081	6.131705418012	0
3	8104	6.136190645091	0
3	8104	6.136190645091	0
3	8113	6.136568645091	0
3	8113	6.136568645091	0
3	8124	6.142702199844	0
3	8124	6.142702199844	2
3	8125	6.142702199844	2
3	8125	6.142702199844	0
3	8128	6.142702199844	0
3	8128	6.142702199844	0
3	8135	6.143080199844	0
3	8135	6.143080199844	0
3	8180	6.167883686479	0
3	8180	6.167883686479	0
3	8190	6.168261686479	0
3	8190	6.168261686479	0
3	8264	6.231327418012	0
3	8264	6.231327418012	0
3	8269	6.231705418012	0
3	8269	6.231705418012	0
3	8292	6.236190645091	0
3	8292	6.236190645091	0
3	8301	6.236568645091	0
3	8301	6.236568645091	0
3	8312	6.242702199844	0
3	8312	6.242702199844	2
3	8313	6.242702199844	2
3	8313	6.242702199844	0
3	8316	6.242702199844	0
3	8316	6.242702199844	0
3	8323	6.243080199844	0
3	8323	6.243080199844	0
3	8368	6.267883686479	0
3	8368	6.267883686479	0
3	8378	6.268261686479	0
3	8378	6.268261686479	0
3	8452	6.331327418012	0
3	8452	6.331327418012	0
3	8457	6.331705418012	0
3	8457	6.331705418012	0
3	8480	6.336190645091	0
3	8480	6.336190645091	0
3	8489	6.336568645091	0
3	8489	6.336568645091	0
3	8500	6.342702199844	0
3	8500	6.342702199844	2
3	8501	6.342702199844	2
3	8501	6.342702199844	0
3	8504	6.342702199844	0
3	8504	6.342702199844	0
3	8511	6.343080199844	0
3	8511	6.343080199844	0
3	8556	6.367883686479	0
3	8556	6.367883686479	0
3	8566	6.368261686479	0
3	8566	6.368261686479	0
3	8640	6.431327418012	0
3	8640	6.431327418012	0
3	8645	6.431705418012	0
3	8645	6.431705418012	0
3	8668	6.436190645091	0
3	8668	6.436190645091	0
3	8677	6.436568645091	0
3	8677	6.436568645091	0
3	8688	6.442702199844	0
3	8688	6.442702199844	2
3	8689	6.442702199844	2
3	8689	6.442702199844	0
3	8692	6.442702199844	0
3	8692	6.442702199844	0
3	8699	6.443080199844	0
3	8699	6.443080199844	0
3	8744	6.467883686479	0
3	8744	6.467883686479	0
3	8754	6.468261686479	0
3	8754	6.468261686479	0
3	8828	6.531327418012	0
3	8828	6.531327418012	0
3	8833	6.531705418012	0
3	8833	6.531705418012	0
3	8856	6.536190645091	0
3	8856	6.536190645091	0
3	8865	6.536568645091	0
3	8865	6.536568645091	0
3	8876	6.542702199844	0
3	8876	6.542702199844	2
3	8877	6.542702199844	2
3	8877	6.542702199844	0
3	8880	6.542702199844	0
3	8880	6.542702199844	0
3	8887	6.543080199844	0
3	8887	6.543080199844	0
3	8932	6.567883686479	0
3	8932	6.567883686479	0
3	8942	6.568261686479	0
3	8942	6.568261686479	0
3	9016	6.631327418012	0
3	9016	6.631327418012	0
3	9021	6.631705418012	0
3	9021	6.631705418012	0
3	9044	6.636190645091	0
3	9044	6.636190645091	0
3	9053	6.636568645091	0
3	9053	6.636568645091	0
3	9064	6.642702199844	0
3	9064	6.642702199844	2
3	9065	6.642702199844	2
3	9065	6.642702199844	0
3	9068	6.642702199844	0
3	9068	6.642702199844	0
3	9075	6.643080199844	0
3	9075	6.643080199844	0
3	9120	6.667883686479	0
3	9120	6.667883686479	0
3	9130	6.668261686479	0
3	9130	6.668261686479	0
3	9204	6.731327418012	0
3	9204	6.731327418012	0
3	9209	6.731705418012	0
3	9209	6.731705418012	0
3	9232	6.736190645091	0
3	9232	6.736190645091	0
3	9241	6.736568645091	0
3	9241	6.736568645091	0
3	9252	6.742702199844	0
3	9252	6.742702199844	2
3	9253	6.742702199844	2
3	9253	6.742702199844	0
3	9256	6.742702199844	0
3	9256	6.742702199844	0
3	9263	6.743080199844	0
3	9263	6.743080199844	0
3	9308	6.767883686479	0
3	9308	6.767883686479	0
3	9318	6.768261686479	0
3	9318	6.768261686479	0
3	9392	6.831327418012	0
3	9392	6.831327418012	0
3	9397	6.831705418012	0
3	9397	6.831705418012	0
3	9420	6.836190645091	0
3	9420	6.836190645091	0
3	9429	6.836568645091	0
3	9429	6.836568645091	0
3	9440	6.842702199844	0
3	9440	6.842702199844	2
3	9441	6.842702199844	2
3	9441	6.842702199844	0
3	9444	6.842702199844	0
3	9444	6.842702199844	0
3	9451	6.843080199844	0
3	9451	6.843080199844	0
3	9496	6.867883686479	0
3	9496	6.867883686479	0
3	9506	6.868261686479	0
3	9506	6.868261686479	0
3	9580	6.931327418012	0
3	9580	6.931327418012	0
3	9585	6.931705418012	0
3	9585	6.931705418012	0
3	9608	6.936190645091	0
3	9608	6.936190645091	0
3	9617	6.936568645091	0
3	9617	6.936568645091	0
3	9628	6.942702199844	0
3	9628	6.942702199844	2
3	9629	6.942702199844	2
3	9629	6.942702199844	0
3	9632	6.942702199844	0
3	9632	6.942702199844	0
3	9639	6.943080199844	0
3	9639	6.943080199844	0
3	9684	6.967883686479	0
3	9684	6.967883686479	0
3	9694	6.968261686479	0
3	9694	6.968261686479	0
3	9768	7.031327418012	0
3	9768	7.031327418012	0
3	9773	7.031705418012	0
3	9773	7.031705418012	0
3	9796	7.036190645091	0
3	9796	7.036190645091	0
3	9805	7.036568645091	0
3	9805	7.036568645091	0
3	9816	7.042702199844	0
3	9816	7.042702199844	2
3	9817	7.042702199844	2
3	9817	7.042702199844	0
3	9820	7.042702199844	0
3	9820	7.042702199844	0
3	9827	7.043080199844	0
3	9827	7.043080199844	0
3	9872	7.067883686479	0
3	9872	7.067883686479	0
3	9882	7.068261686479	0
3	9882	7.068261686479	0
3	9956	7.131327418012	0
3	9956	7.131327418012	0
3	9961	7.131705418012	0
3	9961	7.131705418012	0
3	9984	7.136190645091	0
3	9984	7.136190645091	0
3	9993	7.136568645091	0
3	9993	7.136568645091	0
3	10004	7.142702199844	0
3	10004	7.142702199844	2
3	10005	7.142702199844	2
3	10005	7.142702199844	0
3	10008	7.142702199844	0
3	10008	7.142702199844	0
3	10015	7.143080199844	0
3	10015	7.143080199844	0
3	10060	7.167883686479	0
3	10060	7.167883686479	0
3	10070	7.168261686479	0
3	10070	7.168261686479	0
3	10144	7.231327418012	0
3	10144	7.231327418012	0
3	10149	7.231705418012	0
3	10149	7.231705418012	0
3	10172	7.236190645091	0
3	10172	7.236190645091	0
3	10181	7.236568645091	0
3	10181	7.236568645091	0
3	10192	7.242702199844	0
3	10192	7.242702199844	2
3	10193	7.242702199844	2
3	10193	7.242702199844	0
3	10196	7.242702199844	0
3	10196	7.242702199844	0
3	10203	7.243080199844	0
3	10203	7.243080199844	0
3	10248	7.267883686479	0
3	10248	7.267883686479	0
3	10258	7.268261686479	0
3	10258	7.268261686479	0
3	10332	7.331327418012	0
3	10332	7.331327418012	0
3	10337	7.331705418012	0
3	10337	7.331705418012	0
3	10360	7.336190645091	0
3	10360	7.336190645091	0
3	10369	7.336568645091	0
3	10369	7.336568645091	0
3	10380	7.342702199844	0
3	10380	7.342702199844	2
3	10381	7.342702199844	2
3	10381	7.342702199844	0
3	10384	7.342702199844	0
3	10384	7.342702199844	0
3	10391	7.343080199844	0
3	10391	7.343080199844	0
3	10436	7.367883686479	0
3	10436	7.367883686479	0
3	10446	7.368261686479	0
3	10446	7.368261686479	0
3	10520	7.431327418012	0
3	10520	7.431327418012	0
3	10525	7.431705418012	0
3	10525	7.431705418012	0
3	10548	7.436190645091	0
3	10548	7.436190645091	0
3	10557	7.436568645091	0
3	10557	7.436568645091	0
3	10568	7.442702199844	0
3	10568	7.442702199844	2
3	10569	7.442702199844	2
3	10569	7.442702199844	0
3	10572	7.442702199844	0
3	10572	7.442702199844	0
3	10579	7.443080199844	0
3	10579	7.443080199844	0
3	10624	7.467883686479	0
3	10624	7.467883686479	0
3	10634	7.468261686479	0
3	10634	7.468261686479	0
3	10708	7.531327418012	0
3	10708	7.531327418012	0
3	10713	7.531705418012	0
3	10713	7.531705418012	0
3	10736	7.536190645091	0
3	10736	7.536190645091	0
3	10745	7.536568645091	0
3	10745	7.536568645091	0
3	10756	7.542702199844	0
3	10756	7.542702199844	2
3	10757	7.542702199844	2
3	10757	7.542702199844	0
3	10760	7.542702199844	0
3	10760	7.542702199844	0
3	10767	7.543080199844	0
3	10767	7.543080199844	0
3	10812	7.567883686479	0
3	10812	7.567883686479	0
3	10822	7.568261686479	0
3	10822	7.568261686479	0
3	10896	7.631327418012	0
3	10896	7.631327418012	0
3	10901	7.631705418012	0
3	10901	7.631705418012	0
3	10924	7.636190645091	0
3	10924	7.636190645091	0
3	10933	7.636568645091	0
3	10933	7.636568645091	0
3	10944	7.642702199844	0
3	10944	7.642702199844	2
3	10945	7.642702199844	2
3	10945	7.642702199844	0
3	10948	7.642702199844	0
3	10948	7.642702199844	0
3	10955	7.643080199844	0
3	10955	7.643080199844	0
3	11000	7.667883686479	0
3	11000	7.667883686479	0
3	11010	7.668261686479	0
3	11010	7.668261686479	0
3	11084	7.731327418012	0
3	11084	7.731327418012	0
3	11089	7.731705418012	0
3	11089	7.731705418012	0
3	11112	7.736190645091	0
3	11112	7.736190645091	0
3	11121	7.736568645091	0
3	11121	7.736568645091	0
3	11132	7.742702199844	0
3	11132	7.742702199844	2
3	11133	7.742702199844	2
3	11133	7.742702199844	0
3	11136	7.742702199844	0
3	11136	7.742702199844	0
3	11143	7.743080199844	0
3	11143	7.743080199844	0
3	11188	7.767883686479	0
3	11188	7.767883686479	0
3	11198	7.768261686479	0
3	11198	7.768261686479	0
3	11272	7.831327418012	0
3	11272	7.831327418012	0
3	11277	7.831705418012	0
3	11277	7.831705418012	0
3	11300	7.836190645091	0
3	11300	7.836190645091	0
3	11309	7.836568645091	0
3	11309	7.836568645091	0
3	11320	7.842702199844	0
3	11320	7.842702199844	2
3	11321	7.842702199844	2
3	11321	7.842702199844	0
3	11324	7.842702199844	0
3	11324	7.842702199844	0
3	11331	7.843080199844	0
3	11331	7.843080199844	0
3	11376	7.867883686479	0
3	11376	7.867883686479	0
3	11386	7.868261686479	0
3	11386	7.868261686479	0
3	11460	7.931327418012	0
3	11460	7.931327418012	0
3	11465	7.931705418012	0
3	11465	7.931705418012	0
3	11488	7.936190645091	0
3	11488	7.936190645091	0
3	11497	7.936568645091	0
3	11497	7.936568645091	0
3	11508	7.942702199844	0
3	11508	7.942702199844	2
3	11509	7.942702199844	2
3	11509	7.942702199844	0
3	11512	7.942702199844	0
3	11512	7.942702199844	0
3	11519	7.943080199844	0
3	11519	7.943080199844	0
3	11564	7.967883686479	0
3	11564	7.967883686479	0
3	11574	7.968261686479	0
3	11574	7.968261686479	0
3	11650	8.031327418012	0
3	11650	8.031327418012	0
3	11656	8.031705418012	0
3	11656	8.031705418012	0
3	11683	8.036190645091	0
3	11683	8.036190645091	0
3	11695	8.036568645091	0
3	11695	8.036568645091	0
3	11706	8.042702199844	0
3	11706	8.042702199844	2
3	11707	8.042702199844	2
3	11707	8.042702199844	0
3	11710	8.042702199844	0
3	11710	8.042702199844	0
3	11718	8.043080199844	0
3	11718	8.043080199844	0
3	11766	8.067883686479	0
3	11766	8.067883686479	0
3	11777	8.068261686479	0
3	11777	8.068261686479	0
3	11793	8.068841591644	0
3	11793	8.068841591644	0
3	11806	8.069219591644	0
3	11806	8.069219591644	0
3	11880	8.131327418012	0
3	11880	8.131327418012	0
3	11886	8.131705418012	0
3	11886	8.131705418012	0
3	11913	8.136190645091	0
3	11913	8.136190645091	0
3	11925	8.136568645091	0
3	11925	8.136568645091	0
3	11936	8.142702199844	0
3	11936	8.142702199844	2
3	11937	8.142702199844	2
3	11937	8.142702199844	0
3	11940	8.142702199844	0
3	11940	8.142702199844	0
3	11948	8.143080199844	0
3	11948	8.143080199844	0
3	11996	8.167883686479	0
3	11996	8.167883686479	0
3	12007	8.168261686479	0
3	12007	8.168261686479	0
3	12023	8.168841591644	0
3	12023	8.168841591644	0
3	12036	8.169219591644	0
3	12036	8.169219591644	0
3	12110	8.231327418012	0
3	12110	8.231327418012	0
3	12116	8.231705418012	0
3	12116	8.231705418012	0
3	12143	8.236190645091	0
3	12143	8.236190645091	0
3	12155	8.236568645091	0
3	12155	8.236568645091	0
3	12166	8.242702199844	0
3	12166	8.242702199844	2
3	12167	8.242702199844	2
3	12167	8.242702199844	0
3	12170	8.242702199844	0
3	12170	8.242702199844	0
3	12178	8.243080199844	0
3	12178	8.243080199844	0
3	12226	8.267883686479	0
3	12226	8.267883686479	0
3	12237	8.268261686479	0
3	12237	8.268261686479	0
3	12338	8.331327418012	0
3	12338	8.331327418012	0
3	12344	8.331705418012	0
3	12344	8.331705418012	0
3	12371	8.336190645091	0
3	12371	8.336190645091	0
3	12383	8.336568645091	0
3	12383	8.336568645091	0
3	12394	8.342702199844	0
3	12394	8.342702199844	2
3	12395	8.342702199844	2
3	12395	8.342702199844	0
3	12398	8.342702199844	0
3	12398	8.342702199844	0
3	12406	8.343080199844	0
3	12406	8.343080199844	0
3	12454	8.367883686479	0
3	12454	8.367883686479	0
3	12465	8.368261686479	0
3	12465	8.368261686479	0
3	12481	8.368841591644	0
3	12481	8.368841591644	0
3	12494	8.369219591644	0
3	12494	8.369219591644	0
3	12568	8.431327418012	0
3	12568	8.431327418012	0
3	12574	8.431705418012	0
3	12574	8.431705418012	0
3	12601	8.436190645091	0
3	12601	8.436190645091	0
3	12613	8.436568645091	0
3	12613	8.436568645091	0
3	12624	8.442702199844	0
3	12624	8.442702199844	2
3	12625	8.442702199844	2
3	12625	8.442702199844	0
3	12628	8.442702199844	0
3	12628	8.442702199844	0
3	12636	8.443080199844	0
3	12636	8.443080199844	0
3	12684	8.467883686479	0
3	12684	8.467883686479	0
3	12695	8.468261686479	0
3	12695	8.468261686479	0
3	12711	8.468841591644	0
3	12711	8.468841591644	0
3	12724	8.469219591644	0
3	12724	8.469219591644	0
3	12798	8.531327418012	0
3	12798	8.531327418012	0
3	12804	8.531705418012	0
3	12804	8.531705418012	0
3	12831	8.536190645091	0
3	12831	8.536190645091	0
3	12843	8.536568645091	0
3	12843	8.536568645091	0
3	12854	8.542702199844	0
3	12854	8.542702199844	2
3	12855	8.542702199844	2
3	12855	8.542702199844	0
3	12858	8.542702199844	0
3	12858	8.542702199844	0
3	12866	8.543080199844	0
3	12866	8.543080199844	0
3	12914	8.567883686479	0
3	12914	8.567883686479	0
3	12925	8.568261686479	0
3	12925	8.568261686479	0
3	12941	8.568841591644	0
3	12941	8.568841591644	0
3	12954	8.569219591644	0
3	12954	8.569219591644	0
3	13028	8.631327418012	0
3	13028	8.631327418012	0
3	13034	8.631705418012	0
3	13034	8.631705418012	0
3	13061	8.636190645091	0
3	13061	8.636190645091	0
3	13073	8.636568645091	0
3	13073	8.636568645091	0
3	13084	8.642702199844	0
3	13084	8.642702199844	2
3	13085	8.642702199844	2
3	13085	8.642702199844	0
3	13088	8.642702199844	0
3	13088	8.642702199844	0
3	13096	8.643080199844	0
3	13096	8.643080199844	0
3	13144	8.667883686479	0
3	13144	8.667883686479	0
3	13155	8.668261686479	0
3	13155	8.668261686479	0
3	13171	8.668841591644	0
3	13171	8.668841591644	0
3	13184	8.669219591644	0
3	13184	8.669219591644	0
3	13258	8.731327418012	0
3	13258	8.731327418012	0
3	13264	8.731705418012	0
3	13264	8.731705418012	0
3	13291	8.736190645091	0
3	13291	8.736190645091	0
3	13303	8.736568645091	0
3	13303	8.736568645091	0
3	13314	8.742702199844	0
3	13314	8.742702199844	2
3	13315	8.742702199844	2
3	13315	8.742702199844	0
3	13318	8.742702199844	0
3	13318	8.742702199844	0
3	13326	8.743080199844	0
3	13326	8.743080199844	0
3	13374	8.767883686479	0
3	13374	8.767883686479	0
3	13385	8.768261686479	0
3	13385	8.768261686479	0
3	13401	8.768841591644	0
3	13401	8.768841591644	0
3	13414	8.769219591644	0
3	13414	8.769219591644	0
3	13488	8.831327418012	0
3	13488	8.831327418012	0
3	13494	8.831705418012	0
3	13494	8.831705418012	0
3	13521	8.836190645091	0
3	13521	8.836190645091	0
3	13533	8.836568645091	0
3	13533	8.836568645091	0
3	13544	8.842702199844	0
3	13544	8.842702199844	2
3	13545	8.842702199844	2
3	13545	8.842702199844	0
3	13548	8.842702199844	0
3	13548	8.842702199844	0
3	13556	8.843080199844	0
3	13556	8.843080199844	0
3	13604	8.867883686479	0
3	13604	8.867883686479	0
3	13615	8.868261686479	0
3	13615	8.868261686479	0
3	13631	8.868841591644	0
3	13631	8.868841591644	0
3	13644	8.869219591644	0
3	13644	8.869219591644	0
3	13718	8.931327418012	0
3	13718	8.931327418012	0
3	13724	8.931705418012	0
3	13724	8.931705418012	0
3	13751	8.936190645091	0
3	13751	8.936190645091	0
3	13763	8.936568645091	0
3	13763	8.936568645091	0
3	13774	8.942702199844	0
3	13774	8.942702199844	2
3	13775	8.942702199844	2
3	13775	8.942702199844	0
3	13778	8.942702199844	0
3	13778	8.942702199844	0
3	13786	8.943080199844	0
3	13786	8.943080199844	0
3	13834	8.967883686479	0
3	13834	8.967883686479	0
3	13845	8.968261686479	0
3	13845	8.968261686479	0
3	13861	8.968841591644	0
3	13861	8.968841591644	0
3	13874	8.969219591644	0
3	13874	8.969219591644	0
3	13948	9.031327418012	0
3	13948	9.031327418012	0
3	13954	9.031705418012	0
3	13954	9.031705418012	0
3	13981	9.036190645091	0
3	13981	9.036190645091	0
3	13993	9.036568645091	0
3	13993	9.036568645091	0
3	14004	9.042702199844	0
3	14004	9.042702199844	2
3	14005	9.042702199844	2
3	14005	9.042702199844	0
3	14008	9.042702199844	0
3	14008	9.042702199844	0
3	14016	9.043080199844	0
3	14016	9.043080199844	0
3	14064	9.067883686479	0
3	14064	9.067883686479	0
3	14075	9.068261686479	0
3	14075	9.068261686479	0
3	14091	9.068841591644	0
3	14091	9.068841591644	0
3	14104	9.069219591644	0
3	14104	9.069219591644	0
3	14178	9.131327418012	0
3	14178	9.131327418012	0
3	14184	9.131705418012	0
3	14184	9.131705418012	0
3	14211	9.136190645091	0
3	14211	9.136190645091	0
3	14223	9.136568645091	0
3	14223	9.136568645091	0
3	14234	9.142702199844	0
3	14234	9.142702199844	2
3	14235	9.142702199844	2
3	14235	9.142702199844	0
3	14238	9.142702199844	0
3	14238	9.142702199844	0
3	14246	9.143080199844	0
3	14246	9.143080199844	0
3	14294	9.167883686479	0
3	14294	9.167883686479	0
3	14305	9.168261686479	0
3	14305	9.168261686479	0
3	14321	9.168841591644	0
3	14321	9.168841591644	0
3	14334	9.169219591644	0
3	14334	9.169219591644	0
3	14408	9.231327418012	0
3	14408	9.231327418012	0
3	14414	9.231705418012	0
3	14414	9.231705418012	0
3	14441	9.236190645091	0
3	14441	9.236190645091	0
3	14453	9.236568645091	0
3	14453	9.236568645091	0
3	14464	9.242702199844	0
3	14464	9.242702199844	2
3	14465	9.242702199844	2
3	14465	9.242702199844	0
3	14468	9.242702199844	0
3	14468	9.242702199844	0
3	14476	9.243080199844	0
3	14476	9.243080199844	0
3	14524	9.267883686479	0
3	14524	9.267883686479	0
3	14535	9.268261686479	0
3	14535	9.268261686479	0
3	14551	9.268841591644	0
3	14551	9.268841591644	0
3	14564	9.269219591644	0
3	14564	9.269219591644	0
3	14638	9.331327418012	0
3	14638	9.331327418012	0
3	14644	9.331705418012	0
3	14644	9.331705418012	0
3	14671	9.336190645091	0
3	14671	9.336190645091	0
3	14683	9.336568645091	0
3	14683	9.336568645091	0
3	14694	9.342702199844	0
3	14694	9.342702199844	2
3	14695	9.342702199844	2
3	14695	9.342702199844	0
3	14698	9.342702199844	0
3	14698	9.342702199844	0
3	14706	9.343080199844	0
3	14706	9.343080199844	0
3	14754	9.367883686479	0
3	14754	9.367883686479	0
3	14765	9.368261686479	0
3	14765	9.368261686479	0
4	2	0.001	0
4	2	0.001	0
4	51	0.042702199844	0
4	51	0.042702199844	0
4	55	0.043080199844	0
4	55	0.043080199844	0
4	161	0.142702199844	0
4	161	0.142702199844	0
4	165	0.143080199844	0
4	165	0.143080199844	0
4	271	0.242702199844	0
4	271	0.242702199844	0
4	275	0.243080199844	0
4	275	0.243080199844	0
4	381	0.342702199844	0
4	381	0.342702199844	0
4	385	0.343080199844	0
4	385	0.343080199844	0
4	491	0.442702199844	0
4	491	0.442702199844	0
4	495	0.443080199844	0
4	495	0.443080199844	0
4	601	0.542702199844	0
4	601	0.542702199844	0
4	605	0.543080199844	0
4	605	0.543080199844	0
4	711	0.642702199844	0
4	711	0.642702199844	0
4	715	0.643080199844	0
4	715	0.643080199844	0
4	821	0.742702199844	0
4	821	0.742702199844	0
4	825	0.743080199844	0
4	825	0.743080199844	0
4	931	0.842702199844	0
4	931	0.842702199844	0
4	935	0.843080199844	0
4	935	0.843080199844	0
4	1041	0.942702199844	0
4	1041	0.942702199844	0
4	1045	0.943080199844	0
4	1045	0.943080199844	0
4	1151	1.042702199844	0
4	1151	1.042702199844	0
4	1155	1.043080199844	0
4	1155	1.043080199844	0
4	1261	1.142702199844	0
4	1261	1.142702199844	0
4	1265	1.143080199844	0
4	1265	1.143080199844	0
4	1371	1.242702199844	0
4	1371	1.242702199844	0
4	1375	1.243080199844	0
4	1375	1.243080199844	0
4	1481	1.342702199844	0
4	1481	1.342702199844	0
4	1485	1.343080199844	0
4	1485	1.343080199844	0
4	1591	1.442702199844	0
4	1591	1.442702199844	0
4	1595	1.443080199844	0
4	1595	1.443080199844	0
4	1701	1.542702199844	0
4	1701	1.542702199844	0
4	1705	1.543080199844	0
4	1705	1.543080199844	0
4	1811	1.642702199844	0
4	1811	1.642702199844	0
4	1815	1.643080199844	0
4	1815	1.643080199844	0
4	1921	1.742702199844	0
4	1921	1.742702199844	0
4	1925	1.743080199844	0
4	1925	1.743080199844	0
4	2031	1.842702199844	0
4	2031	1.842702199844	0
4	2035	1.843080199844	0
4	2035	1.843080199844	0
4	2141	1.942702199844	0
4	2141	1.942702199844	0
4	2145	1.943080199844	0
4	2145	1.943080199844	0
4	2244	2.031327418012	0
4	2244	2.031327418012	0
4	2247	2.031705418012	0
4	2247	2.031705418012	0
4	2267	2.042702199844	0
4	2267	2.042702199844	0
4	2272	2.043080199844	0
4	2272	2.043080199844	0
4	2372	2.131327418012	0
4	2372	2.131327418012	0
4	2375	2.131705418012	0
4	2375	2.131705418012	0
4	2395	2.142702199844	0
4	2395	2.142702199844	0
4	2400	2.143080199844	0
4	2400	2.143080199844	0
4	2500	2.231327418012	0
4	2500	2.231327418012	0
4	2503	2.231705418012	0
4	2503	2.231705418012	0
4	2523	2.242702199844	0
4	2523	2.242702199844	0
4	2528	2.243080199844	0
4	2528	2.243080199844	0
4	2628	2.331327418012	0
4	2628	2.331327418012	0
4	2631	2.331705418012	0
4	2631	2.331705418012	0
4	2651	2.342702199844	0
4	2651	2.342702199844	0
4	2656	2.343080199844	0
4	2656	2.343080199844	0
4	2756	2.431327418012	0
4	2756	2.431327418012	0
4	2759	2.431705418012	0
4	2759	2.431705418012	0
4	2779	2.442702199844	0
4	2779	2.442702199844	0
4	2784	2.443080199844	0
4	2784	2.443080199844	0
4	2884	2.531327418012	0
4	2884	2.531327418012	0
4	2887	2.531705418012	0
4	2887	2.531705418012	0
4	2907	2.542702199844	0
4	2907	2.542702199844	0
4	2912	2.543080199844	0
4	2912	2.543080199844	0
4	3012	2.631327418012	0
4	3012	2.631327418012	0
4	3015	2.631705418012	0
4	3015	2.631705418012	0
4	3035	2.642702199844	0
4	3035	2.642702199844	0
4	3040	2.643080199844	0
4	3040	2.643080199844	0
4	3140	2.731327418012	0
4	3140	2.731327418012	0
4	3143	2.731705418012	0
4	3143	2.731705418012	0
4	3163	2.742702199844	0
4	3163	2.742702199844	0
4	3168	2.743080199844	0
4	3168	2.743080199844	0
4	3268	2.831327418012	0
4	3268	2.831327418012	0
4	3271	2.831705418012	0
4	3271	2.831705418012	0
4	3291	2.842702199844	0
4	3291	2.842702199844	0
4	3296	2.843080199844	0
4	3296	2.843080199844	0
4	3396	2.931327418012	0
4	3396	2.931327418012	0
4	3399	2.931705418012	0
4	3399	2.931705418012	0
4	3419	2.942702199844	0
4	3419	2.942702199844	0
4	3424	2.943080199844	0
4	3424	2.943080199844	0
4	3524	3.031327418012	0
4	3524	3.031327418012	0
4	3527	3.031705418012	0
4	3527	3.031705418012	0
4	3547	3.042702199844	0
4	3547	3.042702199844	0
4	3552	3.043080199844	0
4	3552	3.043080199844	0
4	3652	3.131327418012	0
4	3652	3.131327418012	0
4	3655	3.131705418012	0
4	3655	3.131705418012	0
4	3675	3.142702199844	0
4	3675	3.142702199844	0
4	3680	3.143080199844	0
4	3680	3.143080199844	0
4	3780	3.231327418012	0
4	3780	3.231327418012	0
4	3783	3.231705418012	0
4	3783	3.231705418012	0
4	3803	3.242702199844	0
4	3803	3.242702199844	0
4	3808	3.243080199844	0
4	3808	3.243080199844	0
4	3908	3.331327418012	0
4	3908	3.331327418012	0
4	3911	3.331705418012	0
4	3911	3.331705418012	0
4	3931	3.342702199844	0
4	3931	3.342702199844	0
4	3936	3.343080199844	0
4	3936	3.343080199844	0
4	4036	3.431327418012	0
4	4036	3.431327418012	0
4	4039	3.431705418012	0
4	4039	3.431705418012	0
4	4059	3.442702199844	0
4	4059	3.442702199844	0
4	4064	3.443080199844	0
4	4064	3.443080199844	0
4	4164	3.531327418012	0
4	4164	3.531327418012	0
4	4167	3.531705418012	0
4	4167	3.531705418012	0
4	4187	3.542702199844	0
4	4187	3.542702199844	0
4	4192	3.543080199844	0
4	4192	3.543080199844	0
4	4292	3.631327418012	0
4	4292	3.631327418012	0
4	4295	3.631705418012	0
4	4295	3.631705418012	0
4	4315	3.642702199844	0
4	4315	3.642702199844	0
4	4320	3.643080199844	0
4	4320	3.643080199844	0
4	4420	3.731327418012	0
4	4420	3.731327418012	0
4	4423	3.731705418012	0
4	4423	3.731705418012	0
4	4443	3.742702199844	0
4	4443	3.742702199844	0
4	4448	3.743080199844	0
4	4448	3.743080199844	0
4	4548	3.831327418012	0
4	4548	3.831327418012	0
4	4551	3.831705418012	0
4	4551	3.831705418012	0
4	4571	3.842702199844	0
4	4571	3.842702199844	0
4	4576	3.843080199844	0
4	4576	3.843080199844	0
4	4676	3.931327418012	0
4	4676	3.931327418012	0
4	4679	3.931705418012	0
4	4679	3.931705418012	0
4	4699	3.942702199844	0
4	4699	3.942702199844	0
4	4704	3.943080199844	0
4	4704	3.943080199844	0
4	4806	4.031327418012	0
4	4806	4.031327418012	0
4	4810	4.031705418012	0
4	4810	4.031705418012	0
4	4833	4.042702199844	0
4	4833	4.042702199844	0
4	4839	4.043080199844	0
4	4839	4.043080199844	0
4	4879	4.067883686479	0
4	4879	4.067883686479	0
4	4886	4.068261686479	0
4	4886	4.068261686479	0
4	4960	4.131327418012	0
4	4960	4.131327418012	0
4	4964	4.131705418012	0
4	4964	4.131705418012	0
4	4987	4.142702199844	0
4	4987	4.142702199844	0
4	4993	4.143080199844	0
4	4993	4.143080199844	0
4	5033	4.167883686479	0
4	5033	4.167883686479	0
4	5040	4.168261686479	0
4	5040	4.168261686479	0
4	5114	4.231327418012	0
4	5114	4.231327418012	0
4	5118	4.231705418012	0
4	5118	4.231705418012	0
4	5141	4.242702199844	0
4	5141	4.242702199844	0
4	5147	4.243080199844	0
4	5147	4.243080199844	0
4	5187	4.267883686479	0
4	5187	4.267883686479	0
4	5194	4.268261686479	0
4	5194	4.268261686479	0
4	5268	4.331327418012	0
4	5268	4.331327418012	0
4	5272	4.331705418012	0
4	5272	4.331705418012	0
4	5295	4.342702199844	0
4	5295	4.342702199844	0
4	5301	4.343080199844	0
4	5301	4.343080199844	0
4	5341	4.367883686479	0
4	5341	4.367883686479	0
4	5348	4.368261686479	0
4	5348	4.368261686479	0
4	5422	4.431327418012	0
4	5422	4.431327418012	0
4	5426	4.431705418012	0
4	5426	4.431705418012	0
4	5449	4.442702199844	0
4	5449	4.442702199844	0
4	5455	4.443080199844	0
4	5455	4.443080199844	0
4	5495	4.467883686479	0
4	5495	4.467883686479	0
4	5502	4.468261686479	0
4	5502	4.468261686479	0
4	5576	4.531327418012	0
4	5576	4.531327418012	0
4	5580	4.531705418012	0
4	5580	4.531705418012	0
4	5603	4.542702199844	0
4	5603	4.542702199844	0
4	5609	4.543080199844	0
4	5609	4.543080199844	0
4	5649	4.567883686479	0
4	5649	4.567883686479	0
4	5656	4.568261686479	0
4	5656	4.568261686479	0
4	5730	4.631327418012	0
4	5730	4.631327418012	0
4	5734	4.631705418012	0
4	5734	4.631705418012	0
4	5757	4.642702199844	0
4	5757	4.642702199844	0
4	5763	4.643080199844	0
4	5763	4.643080199844	0
4	5803	4.667883686479	0
4	5803	4.667883686479	0
4	5810	4.668261686479	0
4	5810	4.668261686479	0
4	5884	4.731327418012	0
4	5884	4.731327418012	0
4	5888	4.731705418012	0
4	5888	4.731705418012	0
4	5911	4.742702199844	0
4	5911	4.742702199844	0
4	5917	4.743080199844	0
4	5917	4.743080199844	0
4	5957	4.767883686479	0
4	5957	4.767883686479	0
4	5964	4.768261686479	0
4	5964	4.768261686479	0
4	6038	4.831327418012	0
4	6038	4.831327418012	0
4	6042	4.831705418012	0
4	6042	4.831705418012	0
4	6065	4.842702199844	0
4	6065	4.842702199844	0
4	6071	4.843080199844	0
4	6071	4.843080199844	0
4	6111	4.867883686479	0
4	6111	4.867883686479	0
4	6118	4.868261686479	0
4	6118	4.868261686479	0
4	6192	4.931327418012	0
4	6192	4.931327418012	0
4	6196	4.931705418012	0
4	6196	4.931705418012	0
4	6219	4.942702199844	0
4	6219	4.942702199844	0
4	6225	4.943080199844	0
4	6225	4.943080199844	0
4	6265	4.967883686479	0
4	6265	4.967883686479	0
4	6272	4.968261686479	0
4	6272	4.968261686479	0
4	6346	5.031327418012	0
4	6346	5.031327418012	0
4	6350	5.031705418012	0
4	6350	5.031705418012	0
4	6373	5.042702199844	0
4	6373	5.042702199844	0
4	6379	5.043080199844	0
4	6379	5.043080199844	0
4	6419	5.067883686479	0
4	6419	5.067883686479	0
4	6426	5.068261686479	0
4	6426	5.068261686479	0
4	6500	5.131327418012	0
4	6500	5.131327418012	0
4	6504	5.131705418012	0
4	6504	5.131705418012	0
4	6527	5.142702199844	0
4	6527	5.142702199844	0
4	6533	5.143080199844	0
4	6533	5.143080199844	0
4	6573	5.167883686479	0
4	6573	5.167883686479	0
4	6580	5.168261686479	0
4	6580	5.168261686479	0
4	6654	5.231327418012	0
4	6654	5.231327418012	0
4	6658	5.231705418012	0
4	6658	5.231705418012	0
4	6681	5.242702199844	0
4	6681	5.242702199844	0
4	6687	5.243080199844	0
4	6687	5.243080199844	0
4	6727	5.267883686479	0
4	6727	5.267883686479	0
4	6734	5.268261686479	0
4	6734	5.268261686479	0
4	6808	5.331327418012	0
4	6808	5.331327418012	0
4	6812	5.331705418012	0
4	6812	5.331705418012	0
4	6835	5.342702199844	0
4	6835	5.342702199844	0
4	6841	5.343080199844	0
4	6841	5.343080199844	0
4	6881	5.367883686479	0
4	6881	5.367883686479	0
4	6888	5.368261686479	0
4	6888	5.368261686479	0
4	6962	5.431327418012	0
4	6962	5.431327418012	0
4	6966	5.431705418012	0
4	6966	5.431705418012	0
4	6989	5.442702199844	0
4	6989	5.442702199844	0
4	6995	5.443080199844	0
4	6995	5.443080199844	0
4	7035	5.467883686479	0
4	7035	5.467883686479	0
4	7042	5.468261686479	0
4	7042	5.468261686479	0
4	7116	5.531327418012	0
4	7116	5.531327418012	0
4	7120	5.531705418012	0
[...]
57	14776	9.368841324793	0
58	11609	8	0
58	11609	8	0
58	11653	8.031327551437	0
58	11653	8.031327551437	0
58	11665	8.031705551437	0
58	11665	8.031705551437	0
58	11681	8.036190511666	0
58	11681	8.036190511666	0
58	11687	8.036568511666	0
58	11687	8.036568511666	0
58	11715	8.042702466695	0
58	11715	8.042702466695	0
58	11728	8.043080466695	0
58	11728	8.043080466695	0
58	11767	8.067883686479	0
58	11767	8.067883686479	0
58	11778	8.068261686479	0
58	11778	8.068261686479	0
58	11788	8.068841324793	0
58	11788	8.068841324793	0
58	11796	8.069219324793	0
58	11796	8.069219324793	0
58	11883	8.131327551437	0
58	11883	8.131327551437	0
58	11895	8.131705551437	0
58	11895	8.131705551437	0
58	11911	8.136190511666	0
58	11911	8.136190511666	0
58	11917	8.136568511666	0
58	11917	8.136568511666	0
58	11945	8.142702466695	0
58	11945	8.142702466695	0
58	11958	8.143080466695	0
58	11958	8.143080466695	0
58	11997	8.167883686479	0
58	11997	8.167883686479	0
58	12008	8.168261686479	0
58	12008	8.168261686479	0
58	12018	8.168841324793	0
58	12018	8.168841324793	0
58	12026	8.169219324793	0
58	12026	8.169219324793	0
58	12113	8.231327551437	0
58	12113	8.231327551437	0
58	12125	8.231705551437	0
58	12125	8.231705551437	0
58	12141	8.236190511666	0
58	12141	8.236190511666	0
58	12147	8.236568511666	0
58	12147	8.236568511666	0
58	12175	8.242702466695	0
58	12175	8.242702466695	0
58	12188	8.243080466695	0
58	12188	8.243080466695	0
58	12227	8.267883686479	0
58	12227	8.267883686479	0
58	12238	8.268261686479	0
58	12238	8.268261686479	0
58	12248	8.268841324793	0
58	12248	8.268841324793	0
58	12256	8.269219324793	0
58	12256	8.269219324793	0
58	12341	8.331327551437	0
58	12341	8.331327551437	0
58	12353	8.331705551437	0
58	12353	8.331705551437	0
58	12369	8.336190511666	0
58	12369	8.336190511666	0
58	12375	8.336568511666	0
58	12375	8.336568511666	0
58	12403	8.342702466695	0
58	12403	8.342702466695	0
58	12416	8.343080466695	0
58	12416	8.343080466695	0
58	12455	8.367883686479	0
58	12455	8.367883686479	0
58	12466	8.368261686479	0
58	12466	8.368261686479	0
58	12476	8.368841324793	0
58	12476	8.368841324793	0
58	12484	8.369219324793	0
58	12484	8.369219324793	0
58	12571	8.431327551437	0
58	12571	8.431327551437	0
58	12583	8.431705551437	0
58	12583	8.431705551437	0
58	12599	8.436190511666	0
58	12599	8.436190511666	0
58	12605	8.436568511666	0
58	12605	8.436568511666	0
58	12633	8.442702466695	0
58	12633	8.442702466695	0
58	12646	8.443080466695	0
58	12646	8.443080466695	0
58	12685	8.467883686479	0
58	12685	8.467883686479	0
58	12696	8.468261686479	0
58	12696	8.468261686479	0
58	12706	8.468841324793	0
58	12706	8.468841324793	0
58	12714	8.469219324793	0
58	12714	8.469219324793	0
58	12801	8.531327551437	0
58	12801	8.531327551437	0
58	12813	8.531705551437	0
58	12813	8.531705551437	0
58	12829	8.536190511666	0
58	12829	8.536190511666	0
58	12835	8.536568511666	0
58	12835	8.536568511666	0
58	12863	8.542702466695	0
58	12863	8.542702466695	0
58	12876	8.543080466695	0
58	12876	8.543080466695	0
58	12915	8.567883686479	0
58	12915	8.567883686479	0
58	12926	8.568261686479	0
58	12926	8.568261686479	0
58	12936	8.568841324793	0
58	12936	8.568841324793	0
58	12944	8.569219324793	0
58	12944	8.569219324793	0
58	13031	8.631327551437	0
58	13031	8.631327551437	0
58	13043	8.631705551437	0
58	13043	8.631705551437	0
58	13059	8.636190511666	0
58	13059	8.636190511666	0
58	13065	8.636568511666	0
58	13065	8.636568511666	0
58	13093	8.642702466695	0
58	13093	8.642702466695	0
58	13106	8.643080466695	0
58	13106	8.643080466695	0
58	13145	8.667883686479	0
58	13145	8.667883686479	0
58	13156	8.668261686479	0
58	13156	8.668261686479	0
58	13166	8.668841324793	0
58	13166	8.668841324793	0
58	13174	8.669219324793	0
58	13174	8.669219324793	0
58	13261	8.731327551437	0
58	13261	8.731327551437	0
58	13273	8.731705551437	0
58	13273	8.731705551437	0
58	13289	8.736190511666	0
58	13289	8.736190511666	0
58	13295	8.736568511666	0
58	13295	8.736568511666	0
58	13323	8.742702466695	0
58	13323	8.742702466695	0
58	13336	8.743080466695	0
58	13336	8.743080466695	0
58	13375	8.767883686479	0
58	13375	8.767883686479	0
58	13386	8.768261686479	0
58	13386	8.768261686479	0
58	13396	8.768841324793	0
58	13396	8.768841324793	0
58	13404	8.769219324793	0
58	13404	8.769219324793	0
58	13491	8.831327551437	0
58	13491	8.831327551437	0
58	13503	8.831705551437	0
58	13503	8.831705551437	0
58	13519	8.836190511666	0
58	13519	8.836190511666	0
58	13525	8.836568511666	0
58	13525	8.836568511666	0
58	13553	8.842702466695	0
58	13553	8.842702466695	0
58	13566	8.843080466695	0
58	13566	8.843080466695	0
58	13605	8.867883686479	0
58	13605	8.867883686479	0
58	13616	8.868261686479	0
58	13616	8.868261686479	0
58	13626	8.868841324793	0
58	13626	8.868841324793	0
58	13634	8.869219324793	0
58	13634	8.869219324793	0
58	13721	8.931327551437	0
58	13721	8.931327551437	0
58	13733	8.931705551437	0
58	13733	8.931705551437	0
58	13749	8.936190511666	0
58	13749	8.936190511666	0
58	13755	8.936568511666	0
58	13755	8.936568511666	0
58	13783	8.942702466695	0
58	13783	8.942702466695	0
58	13796	8.943080466695	0
58	13796	8.943080466695	0
58	13835	8.967883686479	0
58	13835	8.967883686479	0
58	13846	8.968261686479	0
58	13846	8.968261686479	0
58	13856	8.968841324793	0
58	13856	8.968841324793	0
58	13864	8.969219324793	0
58	13864	8.969219324793	0
58	13951	9.031327551437	0
58	13951	9.031327551437	0
58	13963	9.031705551437	0
58	13963	9.031705551437	0
58	13979	9.036190511666	0
58	13979	9.036190511666	0
58	13985	9.036568511666	0
58	13985	9.036568511666	0
58	14013	9.042702466695	0
58	14013	9.042702466695	0
58	14026	9.043080466695	0
58	14026	9.043080466695	0
58	14065	9.067883686479	0
58	14065	9.067883686479	0
58	14076	9.068261686479	0
58	14076	9.068261686479	0
58	14086	9.068841324793	0
58	14086	9.068841324793	0
58	14094	9.069219324793	0
58	14094	9.069219324793	0
58	14181	9.131327551437	0
58	14181	9.131327551437	0
58	14193	9.131705551437	0
58	14193	9.131705551437	0
58	14209	9.136190511666	0
58	14209	9.136190511666	0
58	14215	9.136568511666	0
58	14215	9.136568511666	0
58	14243	9.142702466695	0
58	14243	9.142702466695	0
58	14256	9.143080466695	0
58	14256	9.143080466695	0
58	14295	9.167883686479	0
58	14295	9.167883686479	0
58	14306	9.168261686479	0
58	14306	9.168261686479	0
58	14316	9.168841324793	0
58	14316	9.168841324793	0
58	14324	9.169219324793	0
58	14324	9.169219324793	0
58	14411	9.231327551437	0
58	14411	9.231327551437	0
58	14423	9.231705551437	0
58	14423	9.231705551437	0
58	14439	9.236190511666	0
58	14439	9.236190511666	0
58	14445	9.236568511666	0
58	14445	9.236568511666	0
58	14473	9.242702466695	0
58	14473	9.242702466695	0
58	14486	9.243080466695	0
58	14486	9.243080466695	0
58	14525	9.267883686479	0
58	14525	9.267883686479	0
58	14536	9.268261686479	0
58	14536	9.268261686479	0
58	14546	9.268841324793	0
58	14546	9.268841324793	0
58	14554	9.269219324793	0
58	14554	9.269219324793	0
58	14641	9.331327551437	0
58	14641	9.331327551437	0
58	14653	9.331705551437	0
58	14653	9.331705551437	0
58	14669	9.336190511666	0
58	14669	9.336190511666	0
58	14675	9.336568511666	0
58	14675	9.336568511666	0
58	14703	9.342702466695	0
58	14703	9.342702466695	0
58	14716	9.343080466695	0
58	14716	9.343080466695	0
58	14755	9.367883686479	0
58	14755	9.367883686479	0
58	14766	9.368261686479	0
58	14766	9.368261686479	0
58	14776	9.368841324793	0
58	14776	9.368841324793	0
59	11609	8	0
59	11609	8	0
59	11653	8.031327551437	0
59	11653	8.031327551437	0
59	11665	8.031705551437	0
59	11665	8.031705551437	0
59	11681	8.036190511666	0
59	11681	8.036190511666	0
59	11687	8.036568511666	0
59	11687	8.036568511666	0
59	11715	8.042702466695	0
59	11715	8.042702466695	0
59	11728	8.043080466695	0
59	11728	8.043080466695	0
59	11767	8.067883686479	0
59	11767	8.067883686479	0
59	11778	8.068261686479	0
59	11778	8.068261686479	0
59	11788	8.068841324793	0
59	11788	8.068841324793	0
59	11796	8.069219324793	0
59	11796	8.069219324793	0
59	11883	8.131327551437	0
59	11883	8.131327551437	0
59	11895	8.131705551437	0
59	11895	8.131705551437	0
59	11911	8.136190511666	0
59	11911	8.136190511666	0
59	11917	8.136568511666	0
59	11917	8.136568511666	0
59	11945	8.142702466695	0
59	11945	8.142702466695	0
59	11958	8.143080466695	0
59	11958	8.143080466695	0
59	11997	8.167883686479	0
59	11997	8.167883686479	0
59	12008	8.168261686479	0
59	12008	8.168261686479	0
59	12018	8.168841324793	0
59	12018	8.168841324793	0
59	12026	8.169219324793	0
59	12026	8.169219324793	0
59	12113	8.231327551437	0
59	12113	8.231327551437	0
59	12125	8.231705551437	0
59	12125	8.231705551437	0
59	12141	8.236190511666	0
59	12141	8.236190511666	0
59	12147	8.236568511666	0
59	12147	8.236568511666	0
59	12175	8.242702466695	0
59	12175	8.242702466695	0
59	12188	8.243080466695	0
59	12188	8.243080466695	0
59	12227	8.267883686479	0
59	12227	8.267883686479	0
59	12238	8.268261686479	0
59	12238	8.268261686479	0
59	12248	8.268841324793	0
59	12248	8.268841324793	0
59	12256	8.269219324793	0
59	12256	8.269219324793	0
59	12341	8.331327551437	0
59	12341	8.331327551437	0
59	12353	8.331705551437	0
59	12353	8.331705551437	0
59	12369	8.336190511666	0
59	12369	8.336190511666	0
59	12375	8.336568511666	0
59	12375	8.336568511666	0
59	12403	8.342702466695	0
59	12403	8.342702466695	0
59	12416	8.343080466695	0
59	12416	8.343080466695	0
59	12455	8.367883686479	0
59	12455	8.367883686479	0
59	12466	8.368261686479	0
59	12466	8.368261686479	0
59	12476	8.368841324793	0
59	12476	8.368841324793	0
59	12484	8.369219324793	0
59	12484	8.369219324793	0
59	12571	8.431327551437	0
59	12571	8.431327551437	0
59	12583	8.431705551437	0
59	12583	8.431705551437	0
59	12599	8.436190511666	0
59	12599	8.436190511666	0
59	12605	8.436568511666	0
59	12605	8.436568511666	0
59	12633	8.442702466695	0
59	12633	8.442702466695	0
59	12646	8.443080466695	0
59	12646	8.443080466695	0
59	12685	8.467883686479	0
59	12685	8.467883686479	0
59	12696	8.468261686479	0
59	12696	8.468261686479	0
59	12706	8.468841324793	0
59	12706	8.468841324793	0
59	12714	8.469219324793	0
59	12714	8.469219324793	0
59	12801	8.531327551437	0
59	12801	8.531327551437	0
59	12813	8.531705551437	0
59	12813	8.531705551437	0
59	12829	8.536190511666	0
59	12829	8.536190511666	0
59	12835	8.536568511666	0
59	12835	8.536568511666	0
59	12863	8.542702466695	0
59	12863	8.542702466695	0
59	12876	8.543080466695	0
59	12876	8.543080466695	0
59	12915	8.567883686479	0
59	12915	8.567883686479	0
59	12926	8.568261686479	0
59	12926	8.568261686479	0
59	12936	8.568841324793	0
59	12936	8.568841324793	0
59	12944	8.569219324793	0
59	12944	8.569219324793	0
59	13031	8.631327551437	0
59	13031	8.631327551437	0
59	13043	8.631705551437	0
59	13043	8.631705551437	0
59	13059	8.636190511666	0
59	13059	8.636190511666	0
59	13065	8.636568511666	0
59	13065	8.636568511666	0
59	13093	8.642702466695	0
59	13093	8.642702466695	0
59	13106	8.643080466695	0
59	13106	8.643080466695	0
59	13145	8.667883686479	0
59	13145	8.667883686479	0
59	13156	8.668261686479	0
59	13156	8.668261686479	0
59	13166	8.668841324793	0
59	13166	8.668841324793	0
59	13174	8.669219324793	0
59	13174	8.669219324793	0
59	13261	8.731327551437	0
59	13261	8.731327551437	0
59	13273	8.731705551437	0
59	13273	8.731705551437	0
59	13289	8.736190511666	0
59	13289	8.736190511666	0
59	13295	8.736568511666	0
59	13295	8.736568511666	0
59	13323	8.742702466695	0
59	13323	8.742702466695	0
59	13336	8.743080466695	0
59	13336	8.743080466695	0
59	13375	8.767883686479	0
59	13375	8.767883686479	0
59	13386	8.768261686479	0
59	13386	8.768261686479	0
59	13396	8.768841324793	0
59	13396	8.768841324793	0
59	13404	8.769219324793	0
59	13404	8.769219324793	0
59	13491	8.831327551437	0
59	13491	8.831327551437	0
59	13503	8.831705551437	0
59	13503	8.831705551437	0
59	13519	8.836190511666	0
59	13519	8.836190511666	0
59	13525	8.836568511666	0
59	13525	8.836568511666	0
59	13553	8.842702466695	0
59	13553	8.842702466695	0
59	13566	8.843080466695	0
59	13566	8.843080466695	0
59	13605	8.867883686479	0
59	13605	8.867883686479	0
59	13616	8.868261686479	0
59	13616	8.868261686479	0
59	13626	8.868841324793	0
59	13626	8.868841324793	0
59	13634	8.869219324793	0
59	13634	8.869219324793	0
59	13721	8.931327551437	0
59	13721	8.931327551437	0
59	13733	8.931705551437	0
59	13733	8.931705551437	0
59	13749	8.936190511666	0
59	13749	8.936190511666	0
59	13755	8.936568511666	0
59	13755	8.936568511666	0
59	13783	8.942702466695	0
59	13783	8.942702466695	0
59	13796	8.943080466695	0
59	13796	8.943080466695	0
59	13835	8.967883686479	0
59	13835	8.967883686479	0
59	13846	8.968261686479	0
59	13846	8.968261686479	0
59	13856	8.968841324793	0
59	13856	8.968841324793	0
59	13864	8.969219324793	0
59	13864	8.969219324793	0
59	13951	9.031327551437	0
59	13951	9.031327551437	0
59	13963	9.031705551437	0
59	13963	9.031705551437	0
59	13979	9.036190511666	0
59	13979	9.036190511666	0
59	13985	9.036568511666	0
59	13985	9.036568511666	0
59	14013	9.042702466695	0
59	14013	9.042702466695	0
59	14026	9.043080466695	0
59	14026	9.043080466695	0
59	14065	9.067883686479	0
59	14065	9.067883686479	0
59	14076	9.068261686479	0
59	14076	9.068261686479	0
59	14086	9.068841324793	0
59	14086	9.068841324793	0
59	14094	9.069219324793	0
59	14094	9.069219324793	0
59	14181	9.131327551437	0
59	14181	9.131327551437	0
59	14193	9.131705551437	0
59	14193	9.131705551437	0
59	14209	9.136190511666	0
59	14209	9.136190511666	0
59	14215	9.136568511666	0
59	14215	9.136568511666	0
59	14243	9.142702466695	0
59	14243	9.142702466695	0
59	14256	9.143080466695	0
59	14256	9.143080466695	0
59	14295	9.167883686479	0
59	14295	9.167883686479	0
59	14306	9.168261686479	0
59	14306	9.168261686479	0
59	14316	9.168841324793	0
59	14316	9.168841324793	0
59	14324	9.169219324793	0
59	14324	9.169219324793	0
59	14411	9.231327551437	0
59	14411	9.231327551437	0
59	14423	9.231705551437	0
59	14423	9.231705551437	0
59	14439	9.236190511666	0
59	14439	9.236190511666	0
59	14445	9.236568511666	0
59	14445	9.236568511666	0
59	14473	9.242702466695	0
59	14473	9.242702466695	0
59	14486	9.243080466695	0
59	14486	9.243080466695	0
59	14525	9.267883686479	0
59	14525	9.267883686479	0
59	14536	9.268261686479	0
59	14536	9.268261686479	0
59	14546	9.268841324793	0
59	14546	9.268841324793	0
59	14554	9.269219324793	0
59	14554	9.269219324793	0
59	14641	9.331327551437	0
59	14641	9.331327551437	0
59	14653	9.331705551437	0
59	14653	9.331705551437	0
59	14669	9.336190511666	0
59	14669	9.336190511666	0
59	14675	9.336568511666	0
59	14675	9.336568511666	0
59	14703	9.342702466695	0
59	14703	9.342702466695	0
59	14716	9.343080466695	0
59	14716	9.343080466695	0
59	14755	9.367883686479	0
59	14755	9.367883686479	0
59	14766	9.368261686479	0
59	14766	9.368261686479	0
59	14776	9.368841324793	0
59	14776	9.368841324793	0
60	11666	8.031705551437	1050
60	11689	8.036568511666	1050
60	11729	8.043080466695	1050
60	11780	8.068261686479	1050
60	11896	8.131705551437	1050
60	11919	8.136568511666	1050
60	11959	8.143080466695	1050
60	12010	8.168261686479	1050
60	12126	8.231705551437	1050
60	12149	8.236568511666	1050
60	12189	8.243080466695	1050
60	12240	8.268261686479	1050
60	12354	8.331705551437	1050
60	12377	8.336568511666	1050
60	12417	8.343080466695	1050
60	12468	8.368261686479	1050
60	12584	8.431705551437	1050
60	12607	8.436568511666	1050
60	12647	8.443080466695	1050
60	12698	8.468261686479	1050
60	12814	8.531705551437	1050
60	12837	8.536568511666	1050
60	12877	8.543080466695	1050
60	12928	8.568261686479	1050
60	13044	8.631705551437	1050
60	13067	8.636568511666	1050
60	13107	8.643080466695	1050
60	13158	8.668261686479	1050
60	13274	8.731705551437	1050
60	13297	8.736568511666	1050
60	13337	8.743080466695	1050
60	13388	8.768261686479	1050
60	13504	8.831705551437	1050
60	13527	8.836568511666	1050
60	13567	8.843080466695	1050
60	13618	8.868261686479	1050
60	13734	8.931705551437	1050
60	13757	8.936568511666	1050
60	13797	8.943080466695	1050
60	13848	8.968261686479	1050
60	13964	9.031705551437	1050
60	13987	9.036568511666	1050
60	14027	9.043080466695	1050
60	14078	9.068261686479	1050
60	14194	9.131705551437	1050
60	14217	9.136568511666	1050
60	14257	9.143080466695	1050
60	14308	9.168261686479	1050
60	14424	9.231705551437	1050
60	14447	9.236568511666	1050
60	14487	9.243080466695	1050
60	14538	9.268261686479	1050
60	14654	9.331705551437	1050
60	14677	9.336568511666	1050
60	14717	9.343080466695	1050
60	14768	9.368261686479	1050
61	11666	8.031705551437	1050
61	11689	8.036568511666	1050
61	11729	8.043080466695	1050
61	11780	8.068261686479	1050
61	11896	8.131705551437	1050
61	11919	8.136568511666	1050
61	11959	8.143080466695	1050
61	12010	8.168261686479	1050
61	12126	8.231705551437	1050
61	12149	8.236568511666	1050
61	12189	8.243080466695	1050
61	12240	8.268261686479	1050
61	12354	8.331705551437	1050
61	12377	8.336568511666	1050
61	12417	8.343080466695	1050
61	12468	8.368261686479	1050
61	12584	8.431705551437	1050
61	12607	8.436568511666	1050
61	12647	8.443080466695	1050
61	12698	8.468261686479	1050
61	12814	8.531705551437	1050
61	12837	8.536568511666	1050
61	12877	8.543080466695	1050
61	12928	8.568261686479	1050
61	13044	8.631705551437	1050
61	13067	8.636568511666	1050
61	13107	8.643080466695	1050
61	13158	8.668261686479	1050
61	13274	8.731705551437	1050
61	13297	8.736568511666	1050
61	13337	8.743080466695	1050
61	13388	8.768261686479	1050
61	13504	8.831705551437	1050
61	13527	8.836568511666	1050
61	13567	8.843080466695	1050
61	13618	8.868261686479	1050
61	13734	8.931705551437	1050
61	13757	8.936568511666	1050
61	13797	8.943080466695	1050
61	13848	8.968261686479	1050
61	13964	9.031705551437	1050
61	13987	9.036568511666	1050
61	14027	9.043080466695	1050
61	14078	9.068261686479	1050
61	14194	9.131705551437	1050
61	14217	9.136568511666	1050
61	14257	9.143080466695	1050
61	14308	9.168261686479	1050
61	14424	9.231705551437	1050
61	14447	9.236568511666	1050
61	14487	9.243080466695	1050
61	14538	9.268261686479	1050
61	14654	9.331705551437	1050
61	14677	9.336568511666	1050
61	14717	9.343080466695	1050
61	14768	9.368261686479	1050
62	11784	8.068841324793	1050
62	12014	8.168841324793	1050
62	12244	8.268841324793	1050
62	12472	8.368841324793	1050
62	12702	8.468841324793	1050
62	12932	8.568841324793	1050
62	13162	8.668841324793	1050
62	13392	8.768841324793	1050
62	13622	8.868841324793	1050
62	13852	8.968841324793	1050
62	14082	9.068841324793	1050
62	14312	9.168841324793	1050
62	14542	9.268841324793	1050
62	14772	9.368841324793	1050
63	11787	8.068841324793	1050
63	12017	8.168841324793	1050
63	12247	8.268841324793	1050
63	12475	8.368841324793	1050
63	12705	8.468841324793	1050
63	12935	8.568841324793	1050
63	13165	8.668841324793	1050
63	13395	8.768841324793	1050
63	13625	8.868841324793	1050
63	13855	8.968841324793	1050
63	14085	9.068841324793	1050
63	14315	9.168841324793	1050
63	14545	9.268841324793	1050
63	14775	9.368841324793	1050
64	11788	8.068841324793	1
64	11789	8.068841324793	2
64	11795	8.069219324793	1
64	11796	8.069219324793	0
64	12018	8.168841324793	1
64	12019	8.168841324793	2
64	12025	8.169219324793	1
64	12026	8.169219324793	0
64	12248	8.268841324793	1
64	12249	8.268841324793	2
64	12255	8.269219324793	1
64	12256	8.269219324793	0
64	12476	8.368841324793	1
64	12477	8.368841324793	2
64	12483	8.369219324793	1
64	12484	8.369219324793	0
64	12706	8.468841324793	1
64	12707	8.468841324793	2
64	12713	8.469219324793	1
64	12714	8.469219324793	0
64	12936	8.568841324793	1
64	12937	8.568841324793	2
64	12943	8.569219324793	1
64	12944	8.569219324793	0
64	13166	8.668841324793	1
64	13167	8.668841324793	2
64	13173	8.669219324793	1
64	13174	8.669219324793	0
64	13396	8.768841324793	1
64	13397	8.768841324793	2
64	13403	8.769219324793	1
64	13404	8.769219324793	0
64	13626	8.868841324793	1
64	13627	8.868841324793	2
64	13633	8.869219324793	1
64	13634	8.869219324793	0
64	13856	8.968841324793	1
64	13857	8.968841324793	2
64	13863	8.969219324793	1
64	13864	8.969219324793	0
64	14086	9.068841324793	1
64	14087	9.068841324793	2
64	14093	9.069219324793	1
64	14094	9.069219324793	0
64	14316	9.168841324793	1
64	14317	9.168841324793	2
64	14323	9.169219324793	1
64	14324	9.169219324793	0
64	14546	9.268841324793	1
64	14547	9.268841324793	2
64	14553	9.269219324793	1
64	14554	9.269219324793	0
64	14776	9.368841324793	1
64	14777	9.368841324793	2

